59
-75.80137585
Cl         1.71096        0.52670        2.33933
P          1.63661       -0.09485       -0.81233
P         -1.55462       -0.19656       -0.72581
C          0.62788        0.04306       -2.35672
H          0.37697        1.09287       -2.52166
H          1.24195       -0.27985       -3.20331
C         -0.61868       -0.78240       -2.20726
H         -0.36718       -1.83594       -2.06677
H         -1.27086       -0.71195       -3.08322
C          2.76746       -1.54806       -0.98474
H          2.34666       -2.21019       -1.75180
C          2.89901        1.25150       -0.61495
H          2.82443        1.58164        0.42891
C         -3.05206       -1.21174       -0.31290
H         -2.99822       -1.40403        0.76621
C         -2.37420        1.41039       -1.12627
H         -1.86180        1.84199       -1.99477
C          4.06860       -0.87862       -1.47106
H          4.93025       -1.51873       -1.22923
H          4.05560       -0.80093       -2.56879
C          4.24801        0.53708       -0.85752
H          4.87879        1.15832       -1.50910
H          4.80204        0.45605        0.08912
C         -4.23652       -0.27162       -0.63617
H         -5.02038       -0.83697       -1.15993
H         -4.70392        0.07274        0.29795
C         -3.80529        0.96052       -1.47912
H         -4.50954        1.79257       -1.33577
H         -3.85936        0.70730       -2.54871
C          2.92330       -2.30084        0.33407
H          3.12692       -1.57279        1.13067
H          3.82114       -2.93269        0.28318
C          2.64198        2.44212       -1.53212
H          3.53320        3.08500       -1.54727
H          2.53226        2.07973       -2.56233
C         -3.08577       -2.54249       -1.05781
H         -4.09708       -2.96762       -0.99163
H         -2.92223       -2.35515       -2.12685
C         -2.29121        2.35989        0.06490
H         -2.85022        1.92214        0.90290
H         -1.25127        2.41056        0.41498
C          1.71707       -3.15706        0.69010
H          1.85424       -3.68310        1.63753
H          1.52599       -3.90857       -0.07831
H          0.81245       -2.55681        0.78195
C          1.42929        3.26031       -1.11151
H          0.52865        2.64807       -1.07010
H          1.23331        4.08822       -1.79656
H          1.56685        3.68405       -0.11479
C         -2.07528       -3.54669       -0.52259
H         -2.28043       -3.79297        0.52105
H         -1.06039       -3.15147       -0.55793
H         -2.08472       -4.48091       -1.08860
C         -2.79821        3.76200       -0.24091
H         -2.70064        4.42767        0.61972
H         -2.24117        4.20977       -1.06616
H         -3.85050        3.75584       -0.52877
Cl        -1.57751       -0.15821        2.40066
Pd         0.08350       -0.01408        0.89949
