45
-71.81749439
C          2.29104        1.24562        2.43916
P          1.49886        0.88262        0.83641
P         -1.00995        0.19439       -0.88872
C         -0.35373       -0.31586       -2.51371
Cl         1.44784       -1.92428        2.30150
H          1.53592        1.51816        3.17089
H         -0.79211        0.29121       -3.30055
Cl        -1.14474       -2.79391        0.36349
C          0.45844        2.23147        0.24117
C         -0.63517        1.92108       -0.53611
C         -1.43663        2.92249       -1.04410
C         -1.13403        4.24529       -0.77287
C         -0.03229        4.55792        0.00038
C          0.76880        3.54950        0.50697
H         -2.29209        2.66178       -1.64629
H         -1.75737        5.03107       -1.16677
H          0.20558        5.58829        0.20765
H          1.63674        3.78229        1.10191
Pd         0.12475       -0.99049        0.74770
H         -0.58879       -1.36081       -2.69513
H          2.99526        2.06547        2.33064
H          0.72488       -0.19044       -2.53332
C         -5.46450       -0.56865       -0.36306
C         -4.67405       -0.26022        0.72623
C         -3.32099       -0.02938        0.55206
C         -2.76900       -0.11233       -0.70599
C         -3.55342       -0.41652       -1.79548
C         -4.90676       -0.64603       -1.62396
H         -6.51835       -0.75031       -0.22876
H         -5.10818       -0.20164        1.71078
H         -2.69034        0.21348        1.39309
H         -3.10748       -0.47454       -2.77506
H         -5.52412       -0.88658       -2.47388
C          4.46091       -0.35995       -2.37693
C          3.76848        0.82851       -2.50605
C          2.87642        1.21672       -1.52284
C          2.68941        0.41634       -0.41974
C          3.36864       -0.77281       -0.29072
C          4.26178       -1.16342       -1.27115
H          5.15545       -0.66325       -3.14325
H          3.92059        1.45174       -3.37190
H          2.32140        2.13657       -1.61238
H          3.17103       -1.39834        0.56536
H          4.79453       -2.09513       -1.17477
H          2.82429        0.36794        2.79305
