58
-89.86744409
P          1.70346        0.54821        0.82996
C          3.23793        1.33774        0.33985
C          3.28149        2.70778        0.22123
C          4.45810        3.32669       -0.16246
C          5.58182        2.56741       -0.42331
C          5.53264        1.19254       -0.30293
C          4.35472        0.57666        0.07982
H          4.29959       -0.49580        0.17373
H          2.39201        3.28600        0.41692
C          1.81986       -1.24202        0.64986
C          1.82133       -2.09529        1.72945
C          1.86787       -3.46204        1.52489
C          1.91673       -3.96747        0.24096
C          1.92648       -3.10929       -0.83983
C          1.88057       -1.74345       -0.63093
H          1.88261       -1.05670       -1.46326
H          1.79643       -1.69818        2.73007
C          1.26055        1.09287        2.53581
C         -0.23365        1.15945        2.81520
C         -0.97728       -0.14436        2.54654
P         -1.55456       -0.25169        0.79912
C         -1.61706       -1.94539        0.19963
C         -1.70382       -2.14597       -1.15895
C         -1.73849       -3.43078       -1.66759
C         -1.69305       -4.50918       -0.80659
C         -1.62008       -4.30466        0.55737
C         -1.58442       -3.01743        1.06244
H         -1.53134       -2.84822        2.12534
H         -1.74839       -1.28849       -1.81147
C         -3.17019        0.52295        0.69165
C         -3.28608        1.89402        0.69142
C         -4.53772        2.47744        0.60926
C         -5.66429        1.68266        0.53018
C         -5.54319        0.30709        0.53173
C         -4.29008       -0.27341        0.61292
H         -4.17810       -1.34595        0.61083
H         -2.39845        2.50413        0.73785
Pd        -0.06719        0.77950       -0.65513
Cl         1.43714        1.57384       -2.11854
Cl        -1.82997        1.08995       -2.01508
H         -0.34924       -1.00546        2.77394
H         -1.87593       -0.23581        3.16218
H         -0.38978        1.47109        3.85991
H         -0.68556        1.95703        2.20985
H          1.75782        0.41349        3.22958
H          1.72622        2.07086        2.68076
H          4.49483        4.39906       -0.26190
H          6.40848        0.59963       -0.50942
H          1.86284       -4.13276        2.36838
H          1.96247       -3.50075       -1.84310
H         -1.80025       -3.58809       -2.73179
H         -1.58709       -5.14707        1.22860
H         -4.63181        3.55093        0.60193
H         -6.42168       -0.31367        0.46710
H          6.49808        3.04858       -0.72443
H          1.94593       -5.03313        0.08228
H         -1.71702       -5.51249       -1.19958
H         -6.63951        2.13683        0.46393
