87
-129.18895203
P         -1.62864       -0.35830       -0.22130
P          1.61789        0.37183       -0.07940
C         -1.35359        0.92855       -1.45495
C          1.43326       -0.68739       -1.52404
C         -0.35079        0.82126       -2.41416
C         -0.13326        1.90054       -3.29305
C         -0.93567        3.02462       -3.19834
C         -1.93280        3.10746       -2.25105
C         -2.13388        2.05709       -1.37781
C          2.22354       -1.80789       -1.60993
C          2.08901       -2.67578       -2.67531
C          1.15075       -2.41734       -3.65119
C          0.34046       -1.29662       -3.58389
C          0.48868       -0.40316       -2.50464
Cl         1.24872        0.76335        3.10456
Cl        -1.47719       -1.06265        2.91322
H         -2.54589        3.99130       -2.18480
H         -2.90628        2.12012       -0.62977
H          2.95121       -2.00677       -0.84100
H          2.70934       -3.55475       -2.73875
H         -0.76598        3.84554       -3.87428
H          1.03467       -3.09608       -4.47907
C         -1.41445       -4.55468       -1.94741
C         -0.66028       -4.24160       -0.82483
C         -0.75157       -2.95724       -0.30321
C         -1.57067       -2.02092       -0.89055
C         -2.32567       -2.34247       -1.99383
C         -2.24814       -3.61680       -2.52469
H         -1.34063       -5.54260       -2.36902
C          0.26839       -5.23514       -0.22105
H         -0.17182       -2.69079        0.56397
H         -2.95594       -1.59134       -2.44352
H         -2.83005       -3.87378       -3.39457
C         -5.53683        0.42256        1.98512
C         -5.43619       -0.65537        1.12791
C         -4.25077       -0.89667        0.45954
C         -3.17786       -0.05755        0.64885
C         -3.27495        1.01490        1.50567
C         -4.45563        1.26777        2.19302
H         -6.45994        0.61356        2.50535
H         -6.27988       -1.30972        0.98132
H         -4.15608       -1.73911       -0.20556
H         -2.42317        1.65793        1.65556
C         -4.55638        2.43782        3.10712
C          5.22466       -0.97166        2.35842
C          5.25155        0.24774        1.71081
C          4.15955        0.66010        0.97079
C          3.05237       -0.15018        0.87980
C          3.02186       -1.36378        1.52788
C          4.10728       -1.79178        2.28178
H          6.07468       -1.29453        2.93500
H          6.12169        0.87934        1.78420
H          4.16360        1.61336        0.46852
H          2.14474       -1.98581        1.45753
C          4.06498       -3.11015        2.97102
C          1.79951        4.76924       -1.19933
C          2.65971        3.87097       -1.80016
C          2.61269        2.53324       -1.45377
C          1.71344        2.11071       -0.50326
C          0.86405        3.00435        0.10683
C          0.88399        4.34837       -0.24452
H          1.83183        5.81065       -1.47062
H          3.36226        4.21012       -2.54364
H          3.26236        1.81400       -1.92751
H          0.17194        2.65775        0.85551
C         -0.03981        5.31229        0.41242
Pd        -0.05918       -0.07134        1.48447
C          0.94382        1.86291       -4.32120
C         -0.66940       -1.06449       -4.65375
H          1.49252        2.80550       -4.34325
H          1.66400        1.06979       -4.11765
H          0.52722        1.69462       -5.31500
H         -1.20792       -1.98438       -4.88578
H         -1.40717       -0.31993       -4.35288
H         -0.19185       -0.71591       -5.57024
H          0.36142       -5.08135        0.85509
H         -0.08539       -6.25452       -0.38128
H          1.26361       -5.14983       -0.65976
H         -3.63183        2.57254        3.67054
H         -4.74539        3.35362        2.54522
H         -5.36646        2.30995        3.82639
H          4.15435       -3.92626        2.25253
H          4.87622       -3.20754        3.69372
H          3.12427       -3.23635        3.50910
H         -0.98724        4.83455        0.66705
H          0.39804        5.70327        1.33183
H         -0.26066        6.15610       -0.24281
