111
-148.55236828
P         -2.18870        2.20092        1.39035
P          0.12898        0.23374        0.49405
C         -1.12473        1.43731        2.64024
C         -0.14009        0.55802        2.24796
C         -2.35551        4.01648        1.69856
C         -1.98077        4.80285        0.46153
C         -1.31084        1.71160        3.98011
H         -2.07008        2.41594        4.27857
C         -0.52201        1.08307        4.92807
H         -0.66777        1.29502        5.97471
C          0.44452        0.17778        4.53434
H          1.05163       -0.32038        5.27222
C          0.63384       -0.08772        3.18998
H          1.37555       -0.80202        2.86785
Pd        -1.52090        1.38988       -0.67129
Cl        -3.26055        2.50839       -1.54215
Cl        -0.84760        0.41402       -2.57693
C         -3.83249        4.16929        2.11789
C         -3.96474        1.68106        1.51321
H         -0.95710        4.58538        0.14687
H         -2.64085        4.54822       -0.36938
H         -2.06254        5.87939        0.62984
H         -4.20698        5.14983        1.78959
H         -3.91179        4.17502        3.21492
H         -4.18984        1.12726        0.59156
C         -4.71733        3.02679        1.54491
C         -4.21500        0.80808        2.72499
H         -1.67847        4.26038        2.52863
H         -5.64068        2.91845        2.13241
H         -5.04183        3.29512        0.52872
H         -5.24910        0.45721        2.75928
H         -3.56047       -0.06644        2.72936
H         -4.02800        1.36281        3.64549
C         -1.12250       -4.05572       -0.36147
C         -2.08099       -3.09729        0.05757
C         -1.64372       -1.81367        0.34012
C         -0.33757       -1.45369        0.13460
C          0.56837       -2.34376       -0.37892
C          0.19960       -3.64573       -0.67222
O         -1.47479       -5.42975       -0.43185
C         -3.57314       -3.42811        0.21565
H         -2.32179       -1.07170        0.72605
H          1.57584       -2.00583       -0.54567
C          1.23478       -4.59389       -1.29742
C          4.42007        0.94458       -0.89389
C          4.09810        1.12042        0.47804
C          2.79042        0.90139        0.87829
C          1.80899        0.59656       -0.03000
C          2.09536        0.56236       -1.36969
C          3.37841        0.77253       -1.84276
O          5.77557        0.85881       -1.30343
C          5.11972        1.54031        1.54846
H          2.52844        0.96136        1.91920
H          1.28907        0.36778       -2.05460
C          3.58207        0.82522       -3.36645
C         -4.43837       -2.18406       -0.09093
C         -4.00645       -4.52732       -0.77125
C         -3.84543       -3.87449        1.65979
C          2.23470       -3.80603       -2.17409
C          2.01278       -5.30476       -0.18013
C          0.55672       -5.62930       -2.21305
C         -1.27960       -6.13795        0.78565
H         -4.31865       -1.41376        0.66844
H         -4.17382       -1.75632       -1.05769
H         -5.49623       -2.44420       -0.11742
H         -3.77441       -4.23577       -1.79505
H         -3.49710       -5.46609       -0.56866
H         -5.07817       -4.71314       -0.70556
H         -3.27240       -4.76394        1.91150
H         -3.56771       -3.09064        2.36417
H         -4.90122       -4.10118        1.80588
H          1.70607       -3.19635       -2.90606
H          2.87054       -3.15366       -1.57735
H          2.89273       -4.48446       -2.71657
H          1.34822       -5.89106        0.45025
H          2.76434       -5.97657       -0.59400
H          2.52073       -4.58060        0.45643
H          1.29593       -6.25712       -2.70990
H         -0.10498       -6.28320       -1.65040
H         -0.03716       -5.13238       -2.97945
H         -0.88149       -5.47288        1.55304
H         -2.22844       -6.55480        1.12291
H         -0.58409       -6.96096        0.62200
C          6.27046       -0.46985       -1.28435
C          6.40973        2.11005        0.93301
C          4.51264        2.65240        2.43246
C          5.46269        0.32839        2.43033
C          3.42670       -0.58774       -3.95215
C          2.51521        1.75075       -3.99277
C          4.95701        1.39503       -3.75555
H          6.18123        2.92752        0.25008
H          7.07981        2.48815        1.70476
H          6.94886        1.34909        0.37363
H          5.24650        3.02402        3.14721
H          4.18368        3.49240        1.82134
H          3.65738        2.29533        3.00370
H          6.16724        0.60438        3.21448
H          4.56852       -0.07113        2.90795
H          5.91079       -0.47098        1.84331
H          3.56037       -0.57812       -5.03351
H          4.15950       -1.27233       -3.52892
H          2.43545       -0.98731       -3.74165
H          2.55216        2.74116       -3.54019
H          2.67952        1.86389       -5.06396
H          1.50881        1.35769       -3.85952
H          5.11514        2.36774       -3.29112
H          5.04124        1.51546       -4.83534
H          5.76141        0.73762       -3.43442
H          6.23564       -0.86694       -0.27120
H          5.66523       -1.10403       -1.93039
H          7.30187       -0.47444       -1.63744
