87
-129.18226680
P         -1.52970       -0.27254       -0.37494
P          1.66708        0.27021        0.37047
C         -1.02898        0.89766       -1.64302
C          1.51768       -0.90001       -1.00413
C          0.08842        0.60122       -2.41254
C          0.48886        1.51230       -3.41015
C         -0.25696        2.66340       -3.60654
C         -1.36887        2.93401       -2.83561
C         -1.75266        2.04608       -1.84994
C          2.11387       -2.11547       -0.76142
C          2.03663       -3.13224       -1.69340
C          1.34217       -2.92858       -2.86543
C          0.71543       -1.72156       -3.12349
C          0.81072       -0.67711       -2.18353
Cl         0.74319       -0.00308        3.52448
Cl        -1.87561       -1.66258        2.50418
H         -1.93326        3.83765       -2.99759
H         -2.62091        2.24585       -1.24444
H          2.63691       -2.26963        0.17074
H          2.50804       -4.08163       -1.49912
H          0.04918        3.35802       -4.37025
H          1.26654       -3.72134       -3.59030
C         -2.44196       -4.27359       -2.32533
C         -1.68144       -4.24712       -1.16436
C         -1.42274       -3.01863       -0.56931
C         -1.91302       -1.85859       -1.12148
C         -2.67595       -1.89356       -2.26510
C         -2.94365       -3.10772       -2.86987
H         -2.63755       -5.21902       -2.80193
C         -1.11128       -5.49649       -0.59176
H         -0.83212       -2.97363        0.32975
H         -3.04518       -0.97094       -2.68502
H         -3.53515       -3.14210       -3.77004
C         -5.23504        1.28834        1.77396
C         -5.29874        0.11010        1.05737
C         -4.17654       -0.35797        0.40088
C         -3.00275        0.35619        0.45872
C         -2.93753        1.52974        1.17319
C         -4.05218        2.01082        1.84871
H         -6.10775        1.65495        2.28702
H         -6.22002       -0.44739        1.01403
H         -4.20917       -1.28367       -0.14986
H         -2.01449        2.08127        1.20558
C         -3.97761        3.28420        2.61519
C          5.95982       -0.07880        1.85066
C          4.92810       -0.09815        2.76801
C          3.62146        0.00739        2.33503
C          3.35112        0.12722        0.99346
C          4.37774        0.15010        0.07692
C          5.70098        0.05324        0.49334
H          6.97987       -0.16767        2.18378
H          5.14078       -0.19710        3.81990
H          2.80513       -0.00692        3.03625
H          4.15077        0.23444       -0.97331
C          6.80875        0.04688       -0.50055
C          0.87407        4.67680       -0.41327
C          1.75777        3.98972       -1.22188
C          2.00977        2.65132       -0.98611
C          1.36692        2.01083        0.04633
C          0.51749        2.70264        0.87925
C          0.25251        4.04852        0.65690
H          0.66616        5.71617       -0.60241
H          2.24361        4.49267       -2.04186
H          2.69317        2.09880       -1.61027
H          0.09390        2.20379        1.73449
C         -0.69564        4.79403        1.52780
Pd        -0.21547       -0.48420        1.56119
C          1.69706        1.27009       -4.24591
C         -0.05826       -1.56621       -4.38705
H          2.32416        2.16176       -4.28987
H          2.30589        0.45984       -3.84297
H          1.41739        1.00683       -5.26674
H          0.60890       -1.40391       -5.23440
H         -0.64933       -2.45982       -4.59247
H         -0.74860       -0.72388       -4.33318
H         -1.73343       -6.36015       -0.83053
H         -0.11112       -5.68100       -0.98648
H         -1.03745       -5.43116        0.49476
H         -3.05273        3.33798        3.19110
H         -4.01085        4.14371        1.94433
H         -4.80817        3.37375        3.31668
H          7.02369       -0.96933       -0.83402
H          6.55245        0.64202       -1.37832
H          7.72302        0.46244       -0.07443
H         -0.35606        5.81779        1.69108
H         -1.68593        4.83639        1.07242
H         -0.79133        4.31785        2.50453
