171
-217.84295122
P         -1.60076        0.40846       -0.34000
P          1.61865       -0.38014       -0.41466
C         -0.90629        1.39451       -1.66869
C          0.87568       -1.31506       -1.75209
C         -0.11227        0.80570       -2.64641
C          0.50586        1.63458       -3.60183
C          0.27139        2.99952       -3.56990
C         -0.54441        3.55921       -2.60966
C         -1.12472        2.75068       -1.65267
C          1.07674       -2.67264       -1.80144
C          0.47130       -3.42770       -2.78650
C         -0.34530       -2.81309       -3.71207
C         -0.55890       -1.44498       -3.68046
C          0.07539       -0.67160       -2.68908
Cl         1.64561        0.53607        2.79038
Cl        -1.48798       -0.40632        2.86072
C         -1.44327       -0.81990       -4.70206
C          1.39372        1.06871       -4.65340
H         -0.72294        4.62205       -2.59992
H         -1.75159        3.18015       -0.88814
H          1.71195       -3.14420       -1.06928
H          0.63489       -4.49208       -2.82968
H          0.73872        3.62690       -4.31011
H         -0.82881       -3.39882       -4.47567
C         -3.88561       -3.29070       -1.57514
C         -2.91878       -3.39649       -0.58256
C         -2.20734       -2.25268       -0.24674
C         -2.45701       -1.06448       -0.88601
C         -3.41868       -0.97296       -1.86211
C         -4.15831       -2.09296       -2.22510
H         -4.46065       -4.15741       -1.84130
H         -1.47140       -2.27962        0.53881
H         -3.59764       -0.01543       -2.32090
C         -4.37359        2.80166        2.33635
C         -4.90120        1.77210        1.56678
C         -4.03281        1.06632        0.74435
C         -2.70119        1.39421        0.68783
C         -2.19865        2.41993        1.44899
C         -3.02523        3.13806        2.30243
H         -5.03492        3.34407        2.98538
H         -4.38668        0.24276        0.15035
H         -1.14803        2.64934        1.39133
C          4.18827       -2.87455        2.37714
C          2.84810       -3.20839        2.22051
C          2.09441       -2.46289        1.32359
C          2.65567       -1.41590        0.63519
C          3.97679       -1.09058        0.81626
C          4.77195       -1.81278        1.69582
H          4.78995       -3.45093        3.05275
H          1.05211       -2.68520        1.17282
H          4.38786       -0.25452        0.27830
C          4.01155        3.22068       -1.73375
C          2.94878        3.40308       -0.85749
C          2.22176        2.28287       -0.47559
C          2.53962        1.04598       -0.97764
C          3.58390        0.88292       -1.85432
C          4.35529        1.97239       -2.24033
H          4.59272        4.07906       -2.01310
H          1.40549        2.36297        0.22127
H          3.80820       -0.10443       -2.22277
Pd         0.05192        0.04154        1.27733
C         -3.55488       -5.84734       -0.30240
C         -2.63657       -4.70397        0.16946
C         -2.86952       -4.48103        1.67596
C         -1.17602       -5.11855       -0.07551
H         -3.34060       -6.76532        0.24479
H         -4.60373       -5.60169       -0.13698
H         -3.41035       -6.05456       -1.36258
H         -2.67547       -5.39274        2.24060
H         -2.21848       -3.70124        2.06818
H         -3.89932       -4.17865        1.86474
H         -0.93004       -6.02813        0.47206
H         -1.00282       -5.30445       -1.13488
H         -0.48932       -4.33586        0.24176
C         -6.62766       -2.34251       -2.55277
C         -5.29423       -2.02868       -3.25640
C         -5.04388       -3.06362       -4.36953
C         -5.40081       -0.63202       -3.89934
H         -7.46068       -2.29106       -3.25365
H         -6.61885       -3.34084       -2.11672
H         -6.81697       -1.62983       -1.75062
H         -5.03155       -4.07829       -3.97373
H         -5.82395       -3.01423       -5.12907
H         -4.08721       -2.88541       -4.85837
H         -6.19997       -0.60748       -4.64006
H         -5.62367        0.12851       -3.15118
H         -4.47489       -0.35850       -4.40374
C         -7.23360        2.66566        1.31522
C         -6.39311        1.42336        1.66380
C         -6.71101        0.96429        3.09819
C         -6.77515        0.29019        0.69026
H         -7.04441        3.48190        2.01126
H         -6.99836        3.01967        0.31165
H         -8.29888        2.43823        1.35175
H         -7.76122        0.69035        3.19714
H         -6.10816        0.09670        3.36592
H         -6.50137        1.75224        3.82068
H         -7.83928        0.06433        0.75718
H         -6.56135        0.57225       -0.34056
H         -6.23012       -0.62558        0.91879
C         -3.43968        4.78898        4.19504
C         -2.42706        4.26145        3.16039
C         -2.00812        5.42159        2.24147
C         -1.19589        3.72719        3.92013
H         -2.98567        5.55395        4.82488
H         -4.30447        5.23830        3.70747
H         -3.78672        3.98627        4.84548
H         -1.28421        5.08919        1.49937
H         -2.87024        5.82158        1.70807
H         -1.55706        6.23201        2.81376
H         -0.78322        4.49002        4.57992
H         -1.46462        2.86342        4.52777
H         -0.40478        3.42016        3.23776
C          0.81458       -3.94629        3.51176
C          2.19739       -4.37452        2.97862
C          3.05382       -4.81576        4.18198
C          2.03841       -5.56342        2.01649
H          0.36891       -4.73466        4.11796
H          0.89980       -3.05225        4.12909
H          0.12175       -3.72832        2.70146
H          4.00954       -5.22790        3.85973
H          3.24635       -3.97678        4.85049
H          2.54424       -5.58959        4.75603
H          1.54309       -6.40141        2.50659
H          1.44851       -5.28304        1.14535
H          3.01065       -5.90439        1.66115
C          6.33757        0.08504        2.20500
C          6.24477       -1.41893        1.87894
C          7.00722       -1.71462        0.57619
C          6.90688       -2.20296        3.02855
H          5.75360        0.32170        3.09416
H          7.37007        0.38082        2.38991
H          5.96185        0.69654        1.38570
H          6.95746       -2.77568        0.33240
H          6.58089       -1.16110       -0.25871
H          8.05706       -1.43560        0.66438
H          7.93840       -1.88132        3.17181
H          6.37620       -2.04260        3.96692
H          6.92442       -3.27208        2.81831
C          3.81962        5.27641        0.55645
C          2.63794        4.80159       -0.30759
C          1.36535        4.79661        0.56099
C          2.42209        5.77929       -1.47789
H          3.62515        6.26341        0.97572
H          3.99325        4.58633        1.38200
H          4.73694        5.33543       -0.02838
H          1.48653        4.15491        1.43340
H          1.13829        5.80017        0.92032
H          0.50713        4.44553       -0.01080
H          3.31996        5.87695       -2.08664
H          1.61628        5.43354       -2.12418
H          2.15936        6.77203       -1.11288
C          6.34501        3.06879       -3.39347
C          5.56817        1.75871       -3.15911
C          5.09652        1.22156       -4.52152
C          6.52192        0.74030       -2.50716
H          5.71827        3.81558       -3.88058
H          6.70985        3.48166       -2.45309
H          7.20896        2.89610       -4.03519
H          5.94457        1.02686       -5.17785
H          4.54103        0.29117       -4.40907
H          4.45060        1.94519       -5.01709
H          6.83384        1.08243       -1.52048
H          6.04226       -0.23078       -2.39243
H          7.41623        0.59838       -3.11367
H         -1.77582        0.17116       -4.39050
H          2.20205        1.76091       -4.89005
H         -2.33220       -1.42800       -4.86896
H         -0.92565       -0.71936       -5.65690
H          0.83904        0.87857       -5.57295
H          1.84503        0.13022       -4.32827
