111
-148.55307826
P         -2.66503        2.14048        0.52220
P          0.11056        0.60155        0.33482
C         -1.50841        2.17583        1.92130
C         -0.29114        1.53703        1.82094
C         -3.64644        3.70638        0.41833
C         -3.53782        4.32854       -0.95625
C         -1.84762        2.82526        3.09121
H         -2.80621        3.31099        3.17239
C         -0.96222        2.83686        4.15533
H         -1.22720        3.34373        5.06884
C          0.25821        2.19766        4.04971
H          0.94613        2.20443        4.87912
C          0.59330        1.54177        2.87884
H          1.53547        1.02491        2.78315
Pd        -1.41930        1.33103       -1.24497
Cl        -3.19842        1.58331       -2.58254
Cl        -0.02031        0.52142       -2.80905
C         -5.07263        3.24557        0.78643
C         -4.02537        0.90490        0.73236
H         -4.09425        5.26687       -1.01761
H         -2.49734        4.53312       -1.21954
H         -3.94312        3.65680       -1.71429
H         -5.80753        3.86647        0.25352
H         -5.25842        3.42060        1.85637
H         -3.88343        0.13978       -0.04347
C         -5.29450        1.74008        0.46618
C         -3.97406        0.27936        2.10886
H         -3.24026        4.38918        1.17657
H         -6.13067        1.33677        1.05587
H         -5.59507        1.63413       -0.58669
H         -4.09505        1.03997        2.88247
H         -4.76631       -0.46090        2.24398
H         -3.01529       -0.21445        2.28089
C         -0.95219       -3.80089        0.79266
C         -0.90988       -2.97529        1.94823
C         -0.59240       -1.63675        1.78640
C         -0.39871       -1.10347        0.53935
C         -0.55874       -1.86972       -0.58378
C         -0.88336       -3.21156       -0.49765
O         -0.97144       -5.21315        0.92548
C         -1.18221       -3.48319        3.37403
H         -0.46709       -0.99783        2.64337
H         -0.40552       -1.40220       -1.54158
C         -1.15315       -3.96603       -1.80951
C          4.54650        0.59394       -0.69759
C          3.71954        1.63893       -1.19091
C          2.38370        1.65081       -0.82208
C          1.85119        0.63479       -0.07328
C          2.61775       -0.43830        0.30135
C          3.95962       -0.51352       -0.03035
O          5.95776        0.69062       -0.80461
C          4.21207        2.73560       -2.15053
H          1.73608        2.45323       -1.13235
H          2.14898       -1.23456        0.85498
C          4.71077       -1.81067        0.31444
C         -2.13792       -2.50818        4.09619
C         -1.86050       -4.86420        3.38467
C          0.14356       -3.55505        4.14988
C         -2.09936       -3.12462       -2.69564
C          0.17371       -4.18333       -2.55602
C         -1.84154       -5.32128       -1.57380
C          0.32913       -5.77684        0.97128
H         -1.69448       -1.52168        4.22052
H         -3.06555       -2.39534        3.53610
H         -2.39028       -2.87736        5.08991
H         -1.20132       -5.63061        2.98405
H         -2.13268       -5.16055        4.39743
H         -2.76574       -4.85220        2.77862
H          0.83979       -4.24451        3.67620
H          0.62278       -2.57743        4.19357
H         -0.02139       -3.89399        5.17229
H         -3.01693       -2.88506       -2.15907
H         -1.63859       -2.18852       -3.00657
H         -2.37060       -3.66819       -3.60016
H          0.00767       -4.69393       -3.50417
H          0.66121       -3.23226       -2.76827
H          0.86333       -4.78517       -1.96733
H         -2.75040       -5.19342       -0.98685
H         -2.10963       -5.79519       -2.51776
H         -1.19060       -6.00582       -1.03517
H          0.87901       -5.52442        0.06619
H          0.87450       -5.39034        1.83066
H          0.24854       -6.86091        1.05374
C          6.54738        1.35364        0.30090
C          4.31880        4.06913       -1.39350
C          5.57309        2.39263       -2.78103
C          3.20398        2.88918       -3.31156
C          3.85216       -3.02704       -0.10258
C          6.04956       -1.92551       -0.43447
C          4.96245       -1.86834        1.82994
H          3.35682        4.35366       -0.96835
H          5.03579        4.00109       -0.57743
H          4.64198        4.86955       -2.05858
H          5.85735        3.13195       -3.52945
H          6.35934        2.36545       -2.03020
H          5.53774        1.41627       -3.26309
H          2.23845        3.25344       -2.96517
H          3.57032        3.59765       -4.05398
H          3.04277        1.93317       -3.80888
H          4.39633       -3.95830        0.05246
H          2.93080       -3.09180        0.47402
H          3.58489       -2.96532       -1.15715
H          5.89936       -1.81819       -1.50815
H          6.74589       -1.15302       -0.11652
H          6.52121       -2.89065       -0.25116
H          4.02397       -1.82902        2.38231
H          5.57671       -1.03186        2.15812
H          5.47519       -2.78979        2.10471
H          7.62806        1.39228        0.16241
H          6.15780        2.36744        0.37920
H          6.32106        0.81789        1.22150
