111
-148.55902997
P         -2.57886        2.20266        0.42624
P         -0.00143        0.36453        0.46297
C         -1.70280        1.91359        1.98738
C         -0.56087        1.14244        1.99005
C         -3.28802        3.91060        0.35063
C         -2.46897        4.81566       -0.54346
C         -2.16975        2.45501        3.16825
H         -3.07641        3.03726        3.16713
C         -1.47996        2.23438        4.34790
H         -1.84300        2.65837        5.26989
C         -0.32840        1.47107        4.34539
H          0.20926        1.29997        5.26346
C          0.12990        0.91903        3.16282
H          1.02362        0.31531        3.14589
Pd        -1.15582        1.44760       -1.22509
Cl        -2.51223        2.39283       -2.73941
Cl         0.39229        0.77854       -2.70299
C         -4.72795        3.65444       -0.13181
C         -4.12040        1.19430        0.25352
H         -2.89087        5.82246       -0.58659
H         -1.43777        4.89380       -0.19089
H         -2.43713        4.42948       -1.56288
H         -4.74830        3.71901       -1.22855
H         -5.39990        4.45027        0.22419
H         -4.07639        0.74066       -0.74552
C         -5.23790        2.25327        0.31311
C         -4.20032        0.13044        1.32778
H         -3.29545        4.29381        1.37864
H         -5.61455        2.31206        1.34351
H         -6.09760        1.93685       -0.29689
H         -3.34788       -0.55119        1.27740
H         -4.19566        0.58360        2.32086
H         -5.11417       -0.46140        1.23746
C         -1.21651       -4.02902        0.36840
C         -0.35767       -3.54996        1.39012
C         -0.00244       -2.21099        1.37430
C         -0.52428       -1.35052        0.44382
C         -1.44182       -1.78813       -0.47563
C         -1.83928       -3.11328       -0.51693
O         -1.41933       -5.42526        0.20535
C          0.21107       -4.46163        2.48876
H          0.70549       -1.82274        2.08587
H         -1.83526       -1.08438       -1.18625
C         -2.89940       -3.54124       -1.54375
C          4.48204        0.70321       -0.25020
C          3.78644       -0.47103       -0.63527
C          2.42173       -0.52674       -0.40854
C          1.76768        0.49030        0.23519
C          2.45089        1.58463        0.69658
C          3.81844        1.70225        0.50789
O          5.82925        0.89679       -0.65598
C          4.47271       -1.65950       -1.32616
H          1.84110       -1.36586       -0.75147
H          1.89491        2.35439        1.20333
C          4.55355        2.91554        1.09896
C          1.55507       -5.04210        2.02368
C          0.44265       -3.66303        3.79188
C         -0.76893       -5.59903        2.82983
C         -3.73400       -4.72427       -1.02073
C         -3.88667       -2.38514       -1.82498
C         -2.20403       -3.92244       -2.85935
C         -0.47512       -6.04858       -0.65644
H          1.44067       -5.61934        1.10924
H          2.27008       -4.24442        1.82508
H          1.98213       -5.69578        2.78379
H          0.72173       -4.32818        4.60878
H          1.24665       -2.93672        3.68301
H         -0.46208       -3.13192        4.08670
H         -0.92074       -6.26043        1.98058
H         -0.39526       -6.20413        3.65549
H         -1.73954       -5.19583        3.11677
H         -3.12024       -5.60975       -0.87574
H         -4.19368       -4.47616       -0.06462
H         -4.52709       -4.98446       -1.72128
H         -4.70778       -2.72322       -2.45659
H         -4.31383       -2.00648       -0.89710
H         -3.40513       -1.55841       -2.34493
H         -2.93162       -4.22029       -3.61383
H         -1.63565       -3.07964       -3.25216
H         -1.51227       -4.74883       -2.71435
H          0.05815       -6.82804       -0.11247
H         -0.99530       -6.51292       -1.49405
H          0.23858       -5.31487       -1.03350
C          5.96533        1.55099       -1.91136
C          4.41303       -1.46121       -2.84833
C          5.93391       -1.80536       -0.86450
C          3.75601       -2.98299       -0.97153
C          5.99951        2.55420        1.48504
C          4.54928        4.06117        0.07569
C          3.85277        3.40238        2.38801
H          4.87964       -2.29624       -3.37018
H          3.37959       -1.38586       -3.18591
H          4.92437       -0.54928       -3.14718
H          6.39877       -2.68579       -1.30748
H          6.52891       -0.94143       -1.14936
H          5.98563       -1.90343        0.21933
H          2.75731       -3.03183       -1.40290
H          4.31125       -3.83872       -1.35491
H          3.66946       -3.09714        0.10844
H          6.01297        1.71273        2.17695
H          6.58601        2.27764        0.61245
H          6.49920        3.39568        1.96429
H          5.05176        4.94234        0.47383
H          5.05557        3.77192       -0.84202
H          3.52884        4.34219       -0.18364
H          4.44130        4.17690        2.87930
H          3.72468        2.58157        3.09327
H          2.87373        3.83051        2.17827
H          6.54982        2.46243       -1.78689
H          6.49335        0.90067       -2.60849
H          4.98426        1.79977       -2.31813
