105
-153.06529003
Cl         0.01802        1.99682        3.07114
Pd        -0.45455        1.33020        0.97402
P         -1.10467        0.50557       -1.14456
N         -0.70561       -0.99724       -1.97507
C          0.19636       -2.00101       -1.62683
C          0.32264       -2.48272       -0.29988
C          1.27486       -3.48418       -0.01739
C          1.38637       -4.00635        1.39560
C          2.20825       -5.29675        1.54040
C          3.47954       -5.23631        0.68890
C          3.12675       -5.05229       -0.79434
C          2.07512       -4.00002       -1.04070
C          1.89325       -3.54848       -2.34185
C          0.97026       -2.57853       -2.63246
H          0.85458       -2.22564       -3.64241
H          2.50094       -3.96436       -3.12768
H          4.02553       -4.79604       -1.36995
H          4.10064       -4.39562        1.02291
H          2.45503       -5.48677        2.59452
H          1.83010       -3.22027        2.01733
C         -0.67843       -2.11889        0.73157
C         -0.25758       -1.52798        1.95367
C         -1.19143       -1.39427        2.98531
C         -2.48782       -1.80837        2.82279
C         -2.92014       -2.38055        1.63249
C         -4.35193       -2.85319        1.55075
C         -4.81408       -3.23068        0.13410
C         -3.72867       -4.02245       -0.59956
C         -2.43613       -3.20030       -0.70835
C         -2.01494       -2.53644        0.58051
H         -1.61731       -3.83685       -1.06619
H         -4.07857       -4.33587       -1.59337
H         -5.04088       -2.32003       -0.43364
H         -5.00469       -2.07708        1.96953
H         -3.19160       -1.69370        3.62982
H         -0.88219       -0.93499        3.90778
N          1.03925       -1.02617        2.13679
P          1.60341        0.18951        0.99231
C          2.61393       -0.36571       -0.36760
C          2.41692        0.20218       -1.60143
C          3.23546       -0.15461       -2.65725
C          4.25827       -1.07639       -2.47526
C          4.46152       -1.61055       -1.20922
C          3.64045       -1.25313       -0.15476
H          3.79343       -1.65943        0.83243
H          5.26480       -2.31043       -1.05480
C          5.14370       -1.45932       -3.60902
H          3.08106        0.27896       -3.63038
H          1.61802        0.91234       -1.73145
C          2.54758        1.49047        1.79388
C          3.25344        1.22880        2.94339
C          3.98229        2.23879        3.54502
C          4.01635        3.51195        2.99186
C          3.29841        3.75410        1.82844
C          2.57112        2.74303        1.22704
H          2.01604        2.92695        0.32010
H          3.30887        4.74088        1.39806
C          4.77360        4.60815        3.65697
H          4.52780        2.04392        4.45253
H          3.23714        0.23685        3.36478
H          1.19274       -0.59229        3.03783
H         -0.97792       -0.90311       -2.94551
C         -0.62263        1.88599       -2.19687
C         -0.90030        3.17461       -1.80808
C         -0.51738        4.23788       -2.60273
C          0.15309        4.01920       -3.79801
C          0.41083        2.71192       -4.18686
C          0.02348        1.65146       -3.38853
H          0.23841        0.63965       -3.68824
H          0.91838        2.52959       -5.11874
C          0.54902        5.16236       -4.66632
H         -0.73842        5.24673       -2.29855
H         -1.42333        3.34242       -0.88180
C         -2.90090        0.51910       -1.09098
C         -3.57908        0.78792       -2.25630
C         -4.96272        0.79795       -2.26226
C         -5.67568        0.53748       -1.10004
C         -4.97280        0.27766        0.06771
C         -3.59056        0.25318        0.06628
H         -3.04188        0.04708        0.97116
H         -5.51543        0.09957        0.98016
C         -7.16402        0.57611       -1.09351
H         -5.49724        1.01462       -3.17131
H         -3.02285        0.99353       -3.15755
Cl        -2.32829        2.58237        0.98179
H          2.77304       -6.00299       -1.21085
H          1.60011       -6.15286        1.22230
H          4.09390       -6.13550        0.83849
H          0.37574       -4.15986        1.79457
H         -3.52388       -4.95119       -0.05236
H         -2.56028       -2.42309       -1.47125
H         -4.46716       -3.71773        2.21546
H         -5.75528       -3.79750        0.16713
H          5.50443       -2.48287       -3.49745
H          4.61313       -1.39821       -4.56030
H          6.01097       -0.79996       -3.66352
H          4.13899        5.14098        4.36635
H          5.63438        4.21824        4.20203
H          5.14338        5.33018        2.92759
H         -0.25317        5.41776       -5.36000
H          0.77469        6.04855       -4.07147
H          1.43743        4.92276       -5.25234
H         -7.52387        1.56745       -0.81494
H         -7.56951        0.33447       -2.07698
H         -7.57224       -0.14286       -0.38167
