111
-148.55049234
P         -1.99269        2.36623        1.31191
P         -0.00612        0.03350        0.51504
C         -1.09769        1.47676        2.60602
C         -0.25273        0.44747        2.25568
C         -1.68714        4.18532        1.42252
C         -0.80201        4.64823        0.28565
C         -1.25908        1.81909        3.93283
H         -1.91134        2.63627        4.19542
C         -0.58121        1.11334        4.91184
H         -0.70710        1.37746        5.94914
C          0.25341        0.06953        4.56075
H          0.77809       -0.48281        5.32285
C          0.41842       -0.26433        3.22837
H          1.06519       -1.07777        2.93828
Pd        -1.55676        1.28408       -0.67689
Cl        -2.90422        2.77092       -1.68240
Cl        -1.10111        0.09528       -2.52839
C         -3.10817        4.78043        1.41660
C         -3.83333        2.32973        1.51371
H         -0.62033        5.72457        0.33313
H          0.16477        4.13865        0.30233
H         -1.26767        4.43364       -0.67802
H         -3.36852        5.05854        0.38606
H         -3.13397        5.71878        1.99112
H         -4.23977        2.14366        0.51049
C         -4.15818        3.76775        1.95737
C         -4.27680        1.24740        2.47499
H         -1.20130        4.35678        2.39212
H         -4.17422        3.80534        3.05525
H         -5.17384        4.04648        1.63770
H         -3.94470        0.26158        2.14104
H         -3.85974        1.41295        3.46929
H         -5.36442        1.22326        2.57432
C         -1.09530       -4.32747       -0.22834
C         -1.73020       -3.59759        0.80839
C         -1.34662       -2.28266        1.01520
C         -0.40951       -1.68350        0.21338
C          0.13332       -2.35435       -0.85053
C         -0.22746       -3.66144       -1.13140
O         -1.30495       -5.72789       -0.33872
C         -2.79863       -4.22258        1.71860
H         -1.77216       -1.70446        1.81733
H          0.83877       -1.83543       -1.47438
C          0.31310       -4.32281       -2.40919
C          4.17052        1.18178       -0.92507
C          3.87990        1.18830        0.46309
C          2.61172        0.80861        0.86999
C          1.63342        0.50657       -0.04160
C          1.88093        0.61281       -1.38501
C          3.12750        0.97559       -1.86282
O          5.50574        1.35670       -1.37729
C          4.91733        1.58399        1.52621
H          2.36952        0.74787        1.91555
H          1.06854        0.41795       -2.06155
C          3.33824        1.12242       -3.37807
C         -3.65410       -5.24106        0.94350
C         -2.11298       -4.90649        2.91093
C         -3.76121       -3.14065        2.25898
C          0.49265       -3.26824       -3.52572
C          1.67581       -4.96664       -2.11404
C         -0.66914       -5.37857       -2.94849
C         -0.33882       -6.51318        0.34814
H         -3.05512       -6.08126        0.60042
H         -4.45261       -5.63914        1.56908
H         -4.10765       -4.77472        0.06955
H         -1.44544       -5.69827        2.57973
H         -1.52099       -4.18868        3.47839
H         -2.84799       -5.34624        3.58461
H         -4.59152       -3.59620        2.79811
H         -3.26096       -2.46731        2.95367
H         -4.17661       -2.54888        1.44365
H         -0.42456       -2.69779       -3.67016
H          1.29494       -2.56987       -3.29517
H          0.74494       -3.74438       -4.47285
H          2.38916       -4.21795       -1.77013
H          1.59357       -5.72551       -1.33931
H          2.08589       -5.43867       -3.00651
H         -0.31797       -5.79543       -3.89206
H         -0.79040       -6.20251       -2.24997
H         -1.65087       -4.93712       -3.11691
H          0.35954       -5.87173        0.88716
H         -0.84283       -7.17482        1.05257
H          0.20942       -7.12868       -0.36468
C          6.24841        0.14835       -1.47991
C          5.68389        0.33255        1.98006
C          5.89694        2.63921        0.98101
C          4.22376        2.21064        2.75790
C          3.82683       -0.21352       -3.95773
C          2.01640        1.50719       -4.08155
C          4.35411        2.23738       -3.68559
H          6.20258       -0.13630        1.14737
H          6.42366        0.58210        2.74029
H          5.00154       -0.40492        2.40217
H          6.59062        2.96705        1.75485
H          6.48657        2.24601        0.15680
H          5.35647        3.51264        0.61769
H          3.63320        1.47791        3.30587
H          4.96016        2.61157        3.45404
H          3.56672        3.02707        2.45910
H          3.10406       -1.00493       -3.76308
H          3.96791       -0.14296       -5.03595
H          4.77301       -0.51374       -3.51474
H          2.19038        1.73946       -5.13186
H          1.29200        0.69461       -4.05053
H          1.56866        2.38420       -3.61492
H          4.03437        3.18032       -3.24331
H          4.46077        2.38516       -4.75994
H          5.33717        1.99834       -3.28712
H          7.10513        0.18583       -0.80744
H          5.62181       -0.70699       -1.22399
H          6.62126        0.03558       -2.49783
