59
-75.80015626
Cl         1.60164        0.23583        2.34539
P          1.50865       -0.04856       -0.87468
P         -1.66914       -0.14496       -0.79556
C          0.49388        0.16324       -2.40518
H          0.21768        1.21751       -2.49226
H          1.10428       -0.09154       -3.27743
C         -0.73260       -0.69579       -2.28837
H         -0.46105       -1.74766       -2.17285
H         -1.38554       -0.61582       -3.16319
C          2.75370       -1.39840       -1.13375
H          2.83742       -1.47027       -2.22689
C          2.66206        1.36673       -0.53939
H          2.52245        1.63007        0.51602
C         -3.02187       -1.29258       -0.25440
H         -2.93488       -1.36202        0.83758
C         -2.69014        1.32311       -1.26591
H         -2.25268        1.75780       -2.17334
C          4.04820       -0.78561       -0.57328
H          4.13059       -1.02127        0.49509
H          4.92810       -1.24724       -1.04697
C          4.05951        0.75686       -0.75530
H          4.39921        1.00049       -1.77112
H          4.79104        1.22519       -0.07962
C         -4.32226       -0.55266       -0.64358
H         -5.00815       -1.25545       -1.13742
H         -4.84950       -0.22494        0.26430
C         -4.05895        0.67575       -1.55798
H         -4.85707        1.42416       -1.44187
H         -4.09957        0.36047       -2.61165
C          2.36020       -2.76332       -0.56632
H          3.09631       -3.50862       -0.89852
H          1.41351       -3.07287       -1.02851
C          2.36168        2.57451       -1.41850
H          2.48216        2.28546       -2.47089
H          1.30288        2.84513       -1.31116
C         -2.87449       -2.68467       -0.85699
H         -3.81096       -3.24262       -0.71710
H         -2.75511       -2.58959       -1.94405
C         -2.72568        2.36284       -0.14990
H         -3.55819        3.05719       -0.33077
H         -2.97111        1.85585        0.79278
C          2.23400       -2.82710        0.94827
H          3.18755       -2.64146        1.44424
H          1.88465       -3.80571        1.28606
H          1.52864       -2.08791        1.32422
C          3.23772        3.77591       -1.09623
H          3.00150        4.63650       -1.72630
H          4.29522        3.54642       -1.23859
H          3.11324        4.08550       -0.05681
C         -1.71673       -3.46400       -0.24930
H         -0.78037       -2.91156       -0.32874
H         -1.57274       -4.43296       -0.73250
H         -1.88129       -3.64804        0.81420
C         -1.42773        3.14483       -0.01141
H         -1.47527        3.87664        0.79807
H         -0.58427        2.48693        0.19659
H         -1.19300        3.68560       -0.93019
Cl        -1.64708        0.16885        2.40536
Pd        -0.04649       -0.04234        0.84628
