111
-148.55035347
P         -2.01571        2.34156        1.37465
P          0.01472        0.06670        0.48885
C         -1.06992        1.44752        2.62877
C         -0.21147        0.44295        2.24142
C         -1.79589        4.16891        1.54646
C         -0.96817        4.71687        0.40425
C         -1.21855        1.75443        3.96573
H         -1.88510        2.54993        4.25753
C         -0.51356        1.03860        4.91787
H         -0.62959        1.27512        5.96295
C          0.33330        0.01808        4.52995
H          0.87759       -0.54384        5.27100
C          0.48399       -0.28118        3.18772
H          1.13684       -1.07926        2.86977
Pd        -1.54870        1.34891       -0.65739
Cl        -3.04032        2.78216       -1.53017
Cl        -1.06105        0.22303       -2.53798
C         -3.24318        4.69430        1.60086
C         -3.84843        2.20991        1.60997
H          0.02276        4.25672        0.37542
H         -1.45059        4.51400       -0.55372
H         -0.83890        5.79861        0.48720
H         -3.54320        5.00317        0.59008
H         -3.29819        5.60506        2.21621
H         -4.26797        2.04686        0.60823
C         -4.23018        3.61068        2.12166
C         -4.22077        1.06887        2.53269
H         -1.29090        4.32875        2.50819
H         -4.22101        3.60192        3.22022
H         -5.26552        3.85281        1.83721
H         -3.78938        1.21148        3.52447
H         -5.30366        0.98992        2.65304
H         -3.85157        0.11488        2.14954
C         -1.13204       -4.27186       -0.30450
C         -1.72791       -3.55866        0.76647
C         -1.33070       -2.24957        0.98476
C         -0.41682       -1.63990        0.16408
C          0.08597       -2.29355       -0.92977
C         -0.29232       -3.59260       -1.22404
O         -1.34943       -5.66959       -0.43198
C         -2.76387       -4.19789        1.70390
H         -1.72466       -1.68579        1.81269
H          0.77511       -1.76820       -1.56609
C          0.20145       -4.23033       -2.53244
C          4.22554        1.11646       -0.93535
C          3.92942        1.12908        0.45147
C          2.64977        0.78328        0.85243
C          1.66587        0.51036       -0.06262
C          1.92226        0.61394       -1.40467
C          3.18091        0.94021       -1.87721
O          5.56671        1.25607       -1.38229
C          4.97273        1.49326        1.52020
H          2.40360        0.72698        1.89707
H          1.10746        0.44649       -2.08519
C          3.40415        1.07451       -3.39185
C         -3.64731       -5.20414        0.94434
C         -2.03618       -4.90050        2.85990
C         -3.70592       -3.12476        2.29517
C          0.33715       -3.15550       -3.63588
C          1.57532       -4.87584       -2.29910
C         -0.79778       -5.27890       -3.05425
C         -0.35931       -6.46828        0.20342
H         -4.13214       -4.72418        0.09491
H         -3.06163       -6.03882        0.56664
H         -4.42272       -5.61214        1.59220
H         -2.74666       -5.35126        3.55235
H         -1.38099       -5.68654        2.49225
H         -1.42415       -4.19160        3.41721
H         -4.15068       -2.52136        1.50424
H         -4.51615       -3.58873        2.85717
H         -3.18070       -2.46183        2.98136
H         -0.58631       -2.58572       -3.73628
H          1.14515       -2.45814       -3.42303
H          0.55560       -3.61400       -4.59997
H          1.52257       -5.64963       -1.53657
H          1.95389       -5.32959       -3.21467
H          2.29909       -4.13184       -1.96692
H         -0.47964       -5.67910       -4.01658
H         -0.89312       -6.11475       -2.36603
H         -1.78551       -4.83673       -3.18036
H          0.36116       -5.83730        0.72541
H         -0.83714       -7.14052        0.91602
H          0.15936       -7.07270       -0.54037
C          6.27975        0.02938       -1.47784
C          5.98458        2.52118        0.98179
C          4.29160        2.13734        2.74989
C          5.70089        0.21966        1.97573
C          4.44911        2.16250       -3.69843
C          3.86312       -0.27617       -3.96176
C          2.09681        1.48770       -4.10602
H          5.47103        3.41102        0.61926
H          6.68455        2.82644        1.75920
H          6.56567        2.11371        0.15851
H          5.03590        2.51644        3.44983
H          3.65904        2.97231        2.44955
H          3.67838        1.42069        3.29425
H          6.44366        0.44675        2.74006
H          4.99557       -0.49856        2.39327
H          6.21010       -0.26277        1.14499
H          4.56716        2.30097       -4.77283
H          4.14923        3.11565       -3.26422
H          5.42313        1.90214       -3.29127
H          3.12203       -1.04964       -3.76358
H          4.00828       -0.21592       -5.04006
H          4.80117       -0.59518       -3.51472
H          1.35266        0.69312       -4.07568
H          2.28332        1.71001       -5.15635
H          1.66769        2.37792       -3.64702
H          5.63011       -0.80973       -1.22572
H          6.65733       -0.09388       -2.49281
H          7.13224        0.04627       -0.79921
