87
-129.18188589
P         -1.49918       -0.26287       -0.42533
P          1.69093        0.29393        0.22659
C         -1.07841        0.97814       -1.65400
C          1.50922       -0.80722       -1.20002
C          0.01048        0.73907       -2.48191
C          0.35329        1.70321       -3.45082
C         -0.42054        2.84720       -3.56226
C         -1.50458        3.05955       -2.73531
C         -1.83117        2.11981       -1.77748
C          2.12958       -2.02411       -1.03838
C          2.03497       -2.99430       -2.01727
C          1.29906       -2.74301       -3.15420
C          0.64771       -1.53431       -3.33062
C          0.76069       -0.53625       -2.34327
Cl         0.91352       -0.15823        3.40248
Cl        -1.65585       -1.89078        2.40524
H         -2.09170        3.95802       -2.83212
H         -2.67783        2.27341       -1.12952
H          2.68522       -2.21659       -0.13253
H          2.52469       -3.94524       -1.88616
H         -0.15881        3.58240       -4.30419
H          1.20913       -3.50011       -3.91470
C         -2.43577       -4.17788       -2.53336
C         -1.61227       -4.19364       -1.41600
C         -1.35725       -2.99389       -0.76365
C         -1.88706       -1.81617       -1.23610
C         -2.69747       -1.80723       -2.34707
C         -2.97738       -2.99502       -2.99701
H         -2.65091       -5.10400       -3.03859
C         -1.04065       -5.46722       -0.90113
H         -0.74110       -2.98554        0.11919
H         -3.09853       -0.87139       -2.70376
H         -3.61258       -2.99570       -3.86757
C         -5.13786        1.09756        1.96163
C         -5.19807       -0.05923        1.21068
C         -4.09617       -0.46539        0.48251
C         -2.94623        0.28860        0.50409
C         -2.88407        1.44037        1.25367
C         -3.97842        1.85987        1.99970
H         -5.99490        1.41597        2.53027
H         -6.10054       -0.64810        1.19584
H         -4.12566       -1.37371       -0.09666
H         -1.97946        2.02264        1.25885
C         -3.90766        3.11040        2.80329
C          6.03895       -0.05160        1.54303
C          5.72246        0.14252        0.21296
C          4.39874        0.24727       -0.17314
C          3.40282        0.15235        0.77160
C          3.71924       -0.03828        2.09507
C          5.04202       -0.13691        2.50454
H          7.06845       -0.13966        1.84597
H          6.50536        0.21002       -0.52457
H          4.13606        0.39186       -1.20940
H          2.92804       -0.11254        2.81913
C          5.37687       -0.37100        3.93580
C          0.79795        4.72074       -0.29514
C          1.65181        4.08939       -1.17777
C          1.93369        2.74530       -1.02166
C          1.34935        2.04347        0.00567
C          0.53031        2.67890        0.91088
C          0.23656        4.02976        0.76954
H          0.56715        5.76484       -0.42117
H          2.09097        4.64038       -1.99318
H          2.59456        2.23589       -1.70403
H          0.15386        2.13143        1.75841
C         -0.67668        4.71710        1.72183
Pd        -0.13338       -0.54201        1.46257
C          1.53029        1.52437       -4.34495
C         -0.17291       -1.33005       -4.55712
H          2.14107        2.42806       -4.36846
H          2.16749        0.70588       -4.00795
H          1.21378        1.30762       -5.36596
H         -0.76027       -2.22099       -4.78368
H         -0.87108       -0.50088       -4.43873
H          0.46121       -1.11892       -5.41896
H         -1.69563       -5.90917       -0.14908
H         -0.90869       -6.19379       -1.70412
H         -0.06509       -5.30061       -0.44182
H         -3.96952        3.98917        2.15998
H         -4.72392        3.16506        3.52484
H         -2.97125        3.16206        3.36039
H          5.45345       -1.43873        4.14566
H          6.32791        0.09413        4.19903
H          4.61120        0.04610        4.59156
H         -0.74023        4.17669        2.66723
H         -0.32630        5.72664        1.94122
H         -1.68220        4.79271        1.30590
