111
-148.55125099
P         -2.66143        1.94646       -0.45896
P          0.05657        0.57947        0.35328
C         -1.92587        2.31632        1.15432
C         -0.72160        1.73958        1.49373
C         -3.28724        3.48314       -1.28254
C         -2.51903        3.78129       -2.55149
C         -2.55275        3.17365        2.03572
H         -3.48934        3.62993        1.75995
C         -1.97363        3.44213        3.26391
H         -2.46299        4.10968        3.95422
C         -0.76988        2.85604        3.60557
H         -0.32000        3.06335        4.56257
C         -0.14227        2.00093        2.71766
H          0.79506        1.53252        2.97160
Pd        -1.09595        0.73694       -1.65776
Cl        -2.52146        0.61413       -3.38285
Cl         0.48623       -0.57007       -2.57269
C         -4.78719        3.18848       -1.50635
C         -4.21780        0.94901       -0.40273
H         -1.44880        3.88071       -2.35481
H         -2.64745        2.97748       -3.27756
H         -2.86414        4.70540       -3.02119
H         -5.10001        3.60540       -2.47444
H         -5.38915        3.71628       -0.75228
H         -3.95779       -0.06836       -0.72602
C         -5.10243        1.66651       -1.44252
C         -4.81463        0.93745        0.98794
H         -3.15013        4.29772       -0.55841
H         -6.16324        1.49813       -1.20482
H         -4.94393        1.22027       -2.43549
H         -5.71728        0.32338        1.03260
H         -4.10482        0.55368        1.72250
H         -5.09017        1.94737        1.29635
C         -1.18614       -3.70436        1.26456
C         -0.02771       -3.45547        0.48534
C          0.31930       -2.13952        0.23177
C         -0.39048       -1.10203        0.77525
C         -1.45342       -1.33648        1.60741
C         -1.85020       -2.62900        1.90946
O         -1.70585       -5.02238        1.36440
C          0.81942       -4.57815       -0.13291
H          1.13691       -1.90275       -0.42687
H         -1.97514       -0.48969        2.01637
C         -3.00506       -2.84675        2.89979
C          4.58225        1.05288        0.11536
C          3.76773        1.51340       -0.95048
C          2.39340        1.39740       -0.82319
C          1.83372        0.77012        0.25870
C          2.62156        0.22235        1.23778
C          4.00222        0.32268        1.18365
O          5.97297        1.34206        0.12809
C          4.34733        2.12400       -2.23671
H          1.73657        1.78398       -1.58318
H          2.13770       -0.29529        2.04812
C          4.85026       -0.33383        2.28454
C          0.80366       -5.83998        0.74857
C          0.28164       -4.90065       -1.53541
C          2.29610       -4.13931       -0.26075
C         -3.04601       -1.71097        3.94757
C         -4.33649       -2.86079        2.13379
C         -2.82883       -4.16355        3.67809
C         -2.65128       -5.34842        0.35310
H         -0.19577       -6.26072        0.82305
H          1.45597       -6.61143        0.34012
H          1.14369       -5.60725        1.75716
H          0.32213       -4.01874       -2.17443
H          0.86857       -5.68781       -2.00784
H         -0.75361       -5.23072       -1.49447
H          2.42031       -3.34155       -0.99136
H          2.67907       -3.79061        0.69733
H          2.91992       -4.97105       -0.58719
H         -2.07607       -1.59475        4.43043
H         -3.32209       -0.75722        3.50201
H         -3.78179       -1.92593        4.72219
H         -4.47396       -1.93195        1.58192
H         -4.37024       -3.67743        1.41677
H         -5.17855       -2.97720        2.81555
H         -1.86707       -4.18113        4.18964
H         -3.61293       -4.28509        4.42502
H         -2.86992       -5.02483        3.01605
H         -2.28205       -6.18607       -0.23823
H         -3.59209       -5.64711        0.81520
H         -2.82156       -4.49064       -0.29886
C          6.30263        2.59039        0.72390
C          5.72359        1.51851       -2.56777
C          3.42563        1.82432       -3.44184
C          4.46235        3.64685       -2.07302
C          4.11397       -1.54556        2.89901
C          6.18050       -0.85854        1.71416
C          5.11781        0.68895        3.39894
H          6.45633        1.75273       -1.79982
H          5.65617        0.43382       -2.64477
H          6.10375        1.90292       -3.51390
H          3.89637        2.13099       -4.37554
H          3.21051        0.75816       -3.50922
H          2.48002        2.35944       -3.37057
H          4.86416        4.10713       -2.97532
H          3.48557        4.08781       -1.87546
H          5.11567        3.90663       -1.24358
H          3.23358       -1.23925        3.46213
H          3.80142       -2.24274        2.12284
H          4.76349       -2.08359        3.58915
H          6.75646       -1.37951        2.47856
H          5.99896       -1.55249        0.89406
H          6.79644       -0.04690        1.33451
H          5.70486        0.24577        4.20296
H          4.18117        1.04964        3.82354
H          5.66315        1.55009        3.02110
H          6.78154        3.23433       -0.01334
H          5.40545        3.07875        1.10629
H          7.00582        2.42894        1.54084
