72
-108.40341923
Cl        -1.73874        0.81666        2.67210
Cl         0.96432       -0.80416        2.78492
P          1.12036       -1.13865       -0.30685
P         -2.25021        0.11645       -0.38154
C         -3.24154       -1.48590       -0.15369
C         -3.59675       -1.65132        1.32540
C         -4.50816       -1.43999       -1.00075
C         -3.33089        1.66287       -0.12182
C         -4.15040        1.95950       -1.38468
C         -1.44952        0.42237       -2.06326
C         -1.51486       -0.73707       -3.03544
C          1.12937        0.21223       -1.52183
C         -0.03355        0.96425       -1.98769
C          0.46833        2.05999       -2.81800
C          1.91293        1.97031       -2.87896
C          2.31766        0.83766       -2.07006
C         -2.38041       -2.67330       -0.56287
H         -2.70559       -1.63315        1.95275
H         -4.26997       -0.87495        1.67848
H         -5.19655       -0.67300       -0.64991
H         -5.03666       -2.39343       -0.95167
C         -4.28365        1.51892        1.06106
H         -4.92509        2.69788       -1.17125
H         -4.64290        1.06756       -1.76749
H         -2.05863        1.23044       -2.47866
H         -0.86207       -1.54356       -2.71004
H         -1.16382       -0.43719       -4.02499
H         -2.52551       -1.12662       -3.15190
H         -0.15174        2.75682       -3.38418
H          2.57715        2.62990       -3.44059
Pd        -0.50284       -0.28272        1.15792
H          3.34019        0.50631       -1.87810
C         -2.36222        2.80760        0.13657
H         -3.53862        2.37862       -2.18268
H         -3.75835        1.21547        1.96409
H         -4.77028        2.47145        1.27571
H         -5.07443        0.80025        0.85391
H         -1.61056        2.87072       -0.65166
H         -2.88864        3.76327        0.17761
H         -1.85454        2.67159        1.09014
H         -4.09615       -2.60675        1.49436
H         -4.28313       -1.24135       -2.04755
H         -1.44595       -2.67580       -0.00462
H         -2.89164       -3.61366       -0.34981
H         -2.15242       -2.67019       -1.62556
C          2.79062       -1.22823        0.38944
C          3.23331       -2.20611        1.24518
C          4.56033       -1.90961        1.55602
C          4.87557       -0.76131        0.87280
O          3.79852       -0.33280        0.15220
H          2.65364       -3.03207        1.62274
H          5.20923       -2.46982        2.20924
H          5.83272       -0.25502        0.89347
C          0.75003       -2.74073       -1.04345
C          0.67668       -3.90560       -0.31998
C          0.37508       -4.92782       -1.22091
C          0.27769       -4.34251       -2.45942
O          0.50213       -2.99865       -2.36404
H          0.80771       -4.00137        0.74582
H          0.24417       -5.97228       -0.98959
H          0.05403       -4.85651       -3.38601
Fe         1.27733        2.14501       -0.88219
C          2.96501        2.79810        0.07848
C          2.15935        1.98628        0.96923
C          0.86477        2.61824        1.10108
C          0.85906        3.81855        0.28733
C          2.15744        3.92574       -0.35238
H          3.99944        2.59589       -0.20873
H          2.47173        1.06483        1.46387
H          0.06083        2.26199        1.74707
H          0.04105        4.53679        0.20198
H          2.48223        4.73160       -1.01447
