115
-277.93719708
P         -1.85919       -0.10161       -0.14851
P          1.69756       -0.63960        0.57407
C         -1.69188        1.67578       -0.45011
C         -2.81890        2.46239       -0.35075
H         -3.79027        2.00180       -0.25781
C         -2.68994        3.83435       -0.27029
H         -3.54281        4.45938       -0.05463
C         -1.43652        4.42184       -0.31831
C         -0.32948        3.63199       -0.59227
H          0.63782        4.10096       -0.69480
C         -0.45865        2.25997       -0.65293
H          0.41826        1.64927       -0.78311
C         -3.27559       -0.75220       -1.04519
C         -3.78548       -0.10402       -2.14622
H         -3.31867        0.80162       -2.49873
C         -4.88269       -0.62457       -2.80252
H         -5.30738       -0.12726       -3.66035
C         -5.46773       -1.79539       -2.36131
C         -4.94434       -2.44028       -1.25667
H         -5.41696       -3.34573       -0.91144
C         -3.84763       -1.92118       -0.60113
H         -3.44245       -2.42003        0.26451
C         -1.90448       -0.67253        1.58977
C         -1.21640       -1.85896        1.77816
H         -0.70674       -2.31133        0.94456
C         -1.02421       -2.39789        3.05086
C         -1.75221       -1.84725        4.09836
H         -1.65330       -2.26535        5.08618
C         -2.46253       -0.67787        3.91656
H         -2.91770       -0.19983        4.76726
C         -2.45438       -0.00923        2.69271
C          1.13441       -0.16667        2.25212
C          0.39401        0.99744        2.22066
H          0.18530        1.45645        1.27315
C         -0.24634        1.49548        3.35256
C          0.06142        0.91250        4.57487
H         -0.38722        1.30048        5.47403
C          0.80146       -0.25153        4.62213
H          0.92332       -0.75881        5.56425
C          1.24700       -0.87697        3.45669
C         -2.72371        1.47660        2.71229
H         -3.59158        1.67295        3.35151
H         -3.04214        1.78492        1.71893
C         -1.48941        2.32964        3.19060
H         -1.28065        3.14625        2.49213
H         -1.70863        2.82996        4.14023
C          0.19361       -3.23716        3.34144
H          0.33548       -3.96502        2.53617
H          0.00625       -3.84962        4.23062
C          1.49040       -2.36771        3.53862
H          1.95717       -2.59999        4.50343
H          2.25445       -2.65578        2.82075
C          2.69384       -2.12604        0.72036
C          2.12459       -3.35326        0.45753
C          3.92397       -2.03816        1.33829
C          2.73608       -4.49913        0.91973
C          4.52864       -3.18761        1.81314
C          3.90214       -4.41570        1.66520
C          2.72512        0.65035       -0.15303
C          2.94378        1.82986        0.52197
C          3.19622        0.49052       -1.43480
C          3.59948        2.86754       -0.10576
H          2.57147        1.95575        1.52493
C          3.86301        1.52203       -2.05991
H          2.99800       -0.42588       -1.96545
C          4.05541        2.72167       -1.40369
H          3.71469        3.82127        0.38457
H          4.19203        1.43457       -3.08381
Pd         0.09389       -0.96419       -1.12067
Cl        -1.16998       -1.12247       -2.97371
Cl         1.74817       -2.11103       -2.13496
H          5.42540       -3.13516        2.41062
H          4.35202       -1.06929        1.54365
H          2.25001       -5.45619        0.82018
H          1.16880       -3.41292       -0.03750
C         -1.11167        5.56739        1.82073
C         -1.28016        5.79637        0.28599
C         -0.08174        6.57266       -0.32814
F         -0.93192        6.74168        2.44004
F         -2.22566        4.96744        2.26126
F         -0.07054        4.74937        2.02814
F         -2.38724        6.51671        0.09061
F         -0.11657        7.84303        0.10494
F          1.06666        5.98543        0.03931
F         -0.21212        6.53651       -1.66325
C         -6.64163       -3.84585       -3.23497
C         -6.71879       -2.30343       -3.03202
C         -7.94339       -1.87969       -2.17099
F         -5.48362       -4.11555       -3.85603
F         -6.67013       -4.45860       -2.04333
F         -7.67560       -4.24302       -3.99253
F         -6.85332       -1.74248       -4.23690
F         -9.06892       -2.34600       -2.73207
F         -7.79711       -2.36255       -0.92839
F         -7.96286       -0.53881       -2.13500
C          3.32606        4.55632       -2.87172
C          4.56402        3.90170       -2.18954
C          5.34302        4.89268       -1.27601
F          3.66385        5.74727       -3.38818
F          2.91849        3.72422       -3.84148
F          2.35094        4.68462       -1.95968
F          5.39747        3.49021       -3.14881
F          6.24327        4.18215       -0.58037
F          5.96487        5.80238       -2.04248
F          4.49027        5.49184       -0.43290
C          3.27652       -5.39933        3.82165
C          4.25892       -5.53312        2.61347
C          4.17137       -6.92111        1.91560
F          3.47600       -4.19300        4.36999
F          2.01516       -5.46677        3.37452
F          3.52103       -6.36781        4.71431
F          5.50353       -5.37597        3.07038
F          2.90202       -7.17367        1.56765
F          4.94205       -6.87356        0.81869
F          4.62313       -7.86391        2.75701
