111
-148.55696579
P         -2.66069        1.96233        0.74099
P          0.13947        0.48065        0.48219
C         -1.71060        1.55487        2.23061
C         -0.46784        0.97011        2.11077
C         -3.55574        3.57240        0.92298
C         -2.86316        4.68677        0.16942
C         -2.22646        1.82637        3.48181
H         -3.20706        2.26436        3.57092
C         -1.48970        1.51943        4.61271
H         -1.89202        1.73111        5.58994
C         -0.24113        0.94100        4.49041
H          0.33199        0.70007        5.37058
C          0.26866        0.66114        3.23558
H          1.23408        0.19390        3.12566
Pd        -1.19422        1.64973       -1.01241
Cl        -2.75275        2.58949       -2.32592
Cl         0.29721        1.27202       -2.64584
C         -4.97024        3.23142        0.41921
C         -4.08583        0.82640        0.41609
H         -2.81247        4.46231       -0.89662
H         -3.39507        5.63449        0.28073
H         -1.83917        4.82815        0.52326
H         -5.02547        3.45776       -0.65459
H         -5.71652        3.88353        0.89814
H         -4.01443        0.54666       -0.64364
C         -5.31092        1.73090        0.64937
C         -4.03006       -0.40051        1.30019
H         -3.57996        3.79508        1.99719
H         -5.66295        1.58997        1.68054
H         -6.14711        1.41555        0.00700
H         -3.12282       -0.97900        1.11571
H         -4.03050       -0.11863        2.35471
H         -4.88770       -1.05545        1.13009
C         -1.30836       -3.75194       -0.39033
C         -1.10422       -2.83736       -1.45492
C         -0.61937       -1.57814       -1.15001
C         -0.43110       -1.18483        0.14774
C         -0.72607       -2.02856        1.18585
C         -1.19606       -3.30995        0.95279
O         -1.59357       -5.11569       -0.66631
C         -1.39626       -3.18327       -2.92340
H         -0.37919       -0.87515       -1.92833
H         -0.58430       -1.66862        2.18945
C         -1.55158       -4.20766        2.14804
C          4.67134        0.54925        0.05487
C          4.04207       -0.47778        0.80400
C          2.65979       -0.47022        0.89301
C          1.92118        0.54939        0.35118
C          2.53208        1.60246       -0.27682
C          3.90944        1.64856       -0.41742
O          6.05422        0.45710       -0.25595
C          4.82556       -1.60727        1.49143
H          2.13549       -1.27806        1.37444
H          1.91000        2.37917       -0.68648
C          4.54726        2.85354       -1.12621
C         -1.83462       -1.91936       -3.69998
C         -0.12479       -3.74516       -3.57661
C         -2.54777       -4.19847       -3.03738
C         -0.31904       -5.03358        2.54614
C         -1.98734       -3.35896        3.36451
C         -2.72833       -5.13923        1.80569
C         -0.43772       -5.92699       -0.83369
H         -2.65652       -1.41679       -3.19063
H         -1.01714       -1.20886       -3.81185
H         -2.17125       -2.17863       -4.70335
H          0.68520       -3.01759       -3.52991
H          0.21219       -4.64771       -3.07225
H         -0.29924       -3.98935       -4.62414
H         -2.79576       -4.39439       -4.08025
H         -2.28752       -5.14829       -2.57738
H         -3.44144       -3.82139       -2.54119
H         -0.53636       -5.67162        3.40238
H          0.00961       -5.67010        1.72831
H          0.51207       -4.38102        2.81303
H         -2.35472       -3.99651        4.16834
H         -1.15895       -2.77996        3.77020
H         -2.78749       -2.67125        3.09274
H         -2.46829       -5.82868        1.00616
H         -3.02241       -5.73341        2.67051
H         -3.59303       -4.56133        1.48096
H          0.46685       -5.33860       -0.67455
H         -0.46554       -6.75148       -0.12139
H         -0.42602       -6.34691       -1.83925
C          6.33151       -0.25254       -1.45696
C          4.08455       -2.08803        2.76048
C          4.96202       -2.79374        0.52525
C          6.21634       -1.12507        1.94245
C          5.95162        3.14842       -0.56882
C          4.62281        2.56947       -2.63426
C          3.70020        4.12794       -0.90859
H          4.69560       -2.79569        3.32036
H          3.85773       -1.24896        3.41777
H          3.15199       -2.59491        2.51682
H          5.49725       -2.50839       -0.37718
H          5.50317       -3.61664        0.99160
H          3.98069       -3.16144        0.22600
H          6.83305       -0.84049        1.09380
H          6.12809       -0.25797        2.59616
H          6.74527       -1.90745        2.48615
H          6.37635        4.04037       -1.02871
H          5.91115        3.30828        0.50810
H          6.63520        2.32463       -0.75796
H          3.62859        2.38487       -3.04066
H          5.05586        3.41371       -3.17001
H          5.23156        1.69248       -2.84029
H          2.74092        4.06660       -1.42031
H          4.21463        5.00542       -1.29975
H          3.51487        4.29395        0.15230
H          6.86927        0.39565       -2.14870
H          6.96312       -1.11303       -1.23696
H          5.40437       -0.59061       -1.92157
