111
-148.55274614
P         -1.58322        2.76502       -0.29688
P         -0.48309       -0.09637        0.48163
C         -1.73729        2.17140        1.41241
C         -1.31634        0.89836        1.73421
C         -0.36726        4.15605       -0.37634
C          0.83529        3.76443       -1.20834
C         -2.23957        2.99686        2.39809
H         -2.52732        4.00561        2.15161
C         -2.34561        2.53357        3.69818
H         -2.74209        3.17686        4.46671
C         -1.93758        1.25169        4.01353
H         -2.01500        0.89325        5.02679
C         -1.41069        0.43461        3.02956
H         -1.05515       -0.55642        3.26434
Pd        -1.16919        0.84869       -1.51589
Cl        -2.20996        1.67617       -3.31507
Cl        -0.54843       -1.10115       -2.46116
C         -1.18950        5.32196       -0.96264
C         -3.09983        3.62813       -0.91582
H          1.54945        4.58722       -1.28995
H          1.35592        2.90673       -0.77772
H          0.53056        3.48620       -2.21938
H         -0.96501        5.40507       -2.03483
H         -0.86764        6.27726       -0.52140
H         -3.17731        3.36726       -1.97930
C         -2.71950        5.11278       -0.77439
C         -4.35610        3.20891       -0.18279
H         -0.07849        4.36698        0.66172
H         -3.02248        5.46552        0.22089
H         -3.29131        5.72376       -1.48966
H         -5.23850        3.70959       -0.58765
H         -4.51491        2.13066       -0.25684
H         -4.29747        3.45836        0.87682
C         -1.03094       -4.59949        0.87226
C          0.27023       -4.06156        0.70379
C          0.40016       -2.68802        0.59019
C         -0.68587       -1.86009        0.70267
C         -1.93070       -2.36801        0.96786
C         -2.12976       -3.73262        1.10490
O         -1.24110       -5.99987        0.76413
C          1.52673       -4.93859        0.58979
H          1.35951       -2.24482        0.39099
H         -2.75292       -1.67841        1.05544
C         -3.52976       -4.25139        1.46886
C          3.81107        1.38301        0.12533
C          3.30533        0.45448       -0.82004
C          1.99735        0.02585       -0.67994
C          1.23342        0.41348        0.38831
C          1.74689        1.23714        1.35485
C          3.04459        1.71310        1.27245
O          5.06557        2.01145       -0.09619
C          4.12536       -0.04981       -2.01711
H          1.53341       -0.58595       -1.43353
H          1.10647        1.52660        2.16921
C          3.57786        2.61698        2.39455
C          2.76150       -4.19688        1.15120
C          1.37851       -6.23704        1.40332
C          1.77995       -5.26512       -0.89000
C         -4.27716       -3.22518        2.35074
C         -4.33912       -4.47645        0.18284
C         -3.44555       -5.55850        2.27815
C         -1.53061       -6.43761       -0.55769
H          3.62747       -4.85765        1.18433
H          3.03621       -3.34259        0.53491
H          2.57241       -3.84176        2.16385
H          0.57633       -6.85972        1.01568
H          2.29539       -6.82519        1.37305
H          1.15323       -6.01310        2.44545
H          2.67491       -5.87535       -1.00846
H          0.94246       -5.80790       -1.32206
H          1.91453       -4.35132       -1.46833
H         -4.52275       -2.32008        1.79742
H         -5.21592       -3.64054        2.71657
H         -3.67521       -2.94622        3.21524
H         -4.42654       -3.55009       -0.38434
H         -3.86208       -5.21306       -0.45916
H         -5.34452       -4.82944        0.41084
H         -2.83491       -5.41916        3.16959
H         -4.43506       -5.88914        2.59286
H         -3.00238       -6.36013        1.69264
H         -2.49442       -6.94630       -0.57140
H         -1.55722       -5.58810       -1.24144
H         -0.76790       -7.14355       -0.88576
C          4.98936        3.21605       -0.84905
C          5.62312       -0.13016       -1.67153
C          3.68125       -1.47495       -2.42031
C          3.90262        0.88812       -3.21336
C          5.09333        2.42760        2.58676
C          3.26283        4.08256        2.05754
C          2.90624        2.26903        3.74284
H          6.19480       -0.54605       -2.50079
H          6.03344        0.85144       -1.44917
H          5.78155       -0.76316       -0.79903
H          4.33845       -1.88189       -3.18838
H          3.71278       -2.14711       -1.56370
H          2.67130       -1.48466       -2.82715
H          4.46217        0.54930       -4.08479
H          2.84715        0.92374       -3.48268
H          4.21919        1.90277       -2.98431
H          5.45949        3.02164        3.42374
H          5.32695        1.38205        2.78485
H          5.64709        2.73067        1.70183
H          3.62561        4.74965        2.83905
H          3.72508        4.38076        1.11978
H          2.18798        4.23212        1.95878
H          3.37439        2.81647        4.56061
H          2.99673        1.20459        3.95777
H          1.84940        2.53207        3.74728
H          5.39259        4.04077       -0.26166
H          5.58750        3.12059       -1.75508
H          3.95530        3.43303       -1.11811
