111
-148.55221880
P         -2.21404        2.24658        1.31693
P          0.11510        0.25655        0.50358
C         -1.15448        1.53236        2.59852
C         -0.16910        0.63794        2.24382
C         -2.40220        4.06988        1.55454
C         -2.06040        4.80392        0.27637
C         -1.35071        1.85240        3.92667
H         -2.11216        2.56653        4.19496
C         -0.57069        1.25483        4.90158
H         -0.72398        1.50245        5.93925
C          0.39582        0.33364        4.54651
H          0.99534       -0.14110        5.30573
C          0.59472        0.02177        3.21356
H          1.33539       -0.70677        2.92231
Pd        -1.52594        1.38246       -0.71287
Cl        -3.32742        2.34672       -1.63887
Cl        -0.82059        0.32356       -2.56294
C         -3.87528        4.21802        1.98845
C         -3.98566        1.71294        1.45072
H         -1.03623        4.59347       -0.04157
H         -2.72516        4.49473       -0.53235
H         -2.16363        5.88535        0.39419
H         -4.26504        5.18503        1.63841
H         -3.94105        4.25255        3.08585
H         -4.20542        1.14000        0.53973
C         -4.75335        3.05053        1.45721
C         -4.22696        0.85806        2.67674
H         -1.71651        4.36015        2.36225
H         -5.66755        2.94696        2.05956
H         -5.09476        3.28830        0.43897
H         -4.04663        1.42998        3.58804
H         -5.25679        0.49536        2.71613
H         -3.56205       -0.00822        2.69486
C         -1.11910       -4.05700       -0.25881
C         -2.09436       -3.07669        0.06734
C         -1.66271       -1.78812        0.33591
C         -0.34428       -1.44230        0.19536
C          0.58195       -2.35357       -0.23840
C          0.22190       -3.66246       -0.51139
O         -1.46829       -5.43196       -0.26237
C         -3.60825       -3.34774        0.09634
H         -2.36090       -1.03164        0.65289
H          1.60055       -2.02922       -0.36350
C          1.29520       -4.59971       -1.09060
C          4.42201        0.91693       -0.86397
C          4.09277        1.10545        0.50236
C          2.77975        0.90766        0.89561
C          1.80250        0.59927       -0.01592
C          2.10188        0.53096       -1.35157
C          3.39008        0.72652       -1.81696
O          5.78311        0.88029       -1.26814
C          5.14612        1.47571        1.55826
H          2.50574        0.98582        1.93141
H          1.29980        0.31972       -2.03521
C          3.64691        0.71103       -3.33242
C         -4.09723       -3.38241        1.55326
C         -4.34439       -2.21665       -0.65701
C         -3.97730       -4.66730       -0.60325
C          0.68303       -5.85243       -1.74093
C          2.08668       -3.85962       -2.19222
C          2.26558       -5.01878        0.02564
C         -1.33375       -6.03840        1.01191
H         -5.17482       -3.53801        1.59849
H         -3.61915       -4.18574        2.11034
H         -3.87187       -2.44579        2.06174
H         -4.24239       -1.25917       -0.14989
H         -3.94909       -2.10598       -1.66637
H         -5.41023       -2.42955       -0.73395
H         -3.58045       -4.68780       -1.61765
H         -3.57169       -5.52337       -0.06923
H         -5.05821       -4.79450       -0.65766
H          0.19010       -6.47917       -1.00140
H         -0.05766       -5.57323       -2.48946
H          1.44828       -6.45671       -2.22753
H          1.41101       -3.45797       -2.94688
H          2.66949       -3.03505       -1.78527
H          2.78453       -4.53307       -2.68918
H          3.05367       -5.66211       -0.36490
H          2.73719       -4.14675        0.47792
H          1.74866       -5.56287        0.81355
H         -0.29616       -5.99574        1.33838
H         -1.95254       -5.51816        1.74107
H         -1.64869       -7.08021        0.94910
C          6.34848       -0.42466       -1.27394
C          5.76690        0.19146        2.12838
C          6.24309        2.37129        0.95413
C          4.50380        2.26948        2.71861
C          2.42033        1.26147       -4.09591
C          4.84279        1.60668       -3.70362
C          3.90250       -0.73199       -3.79235
H          6.50997        0.42225        2.89130
H          5.00152       -0.43826        2.58153
H          6.25491       -0.38936        1.34942
H          5.80672        3.26340        0.50616
H          6.95489        2.68753        1.71624
H          6.80046        1.84813        0.18092
H          3.94539        3.12541        2.34048
H          3.82756        1.64991        3.30585
H          5.26732        2.64314        3.40056
H          2.64291        1.37359       -5.15670
H          1.56303        0.59471       -4.01881
H          2.12960        2.23787       -3.70950
H          5.76719        1.23615       -3.26804
H          4.98122        1.64812       -4.78370
H          4.68750        2.62270       -3.34232
H          4.10443       -0.77077       -4.86244
H          3.03372       -1.35783       -3.59196
H          4.75262       -1.16793       -3.27277
H          6.66127       -0.68521       -2.28485
H          7.22764       -0.44338       -0.62997
H          5.62161       -1.15627       -0.91860
