111
-148.54920995
P         -1.88506        2.60457        0.86068
P         -0.31047       -0.12765        0.53262
C         -1.29727        1.71825        2.33140
C         -0.68440        0.49140        2.18475
C         -1.10182        4.26724        0.69593
C         -0.41188        4.38339       -0.64662
C         -1.43216        2.27077        3.58896
H         -1.86559        3.25120        3.69589
C         -0.98221        1.57757        4.69939
H         -1.09177        2.00761        5.68157
C         -0.38701        0.33958        4.55046
H         -0.03243       -0.19770        5.41463
C         -0.22676       -0.20009        3.28683
H          0.26923       -1.14798        3.14821
Pd        -1.56959        1.16225       -0.91552
Cl        -3.16063        2.23286       -2.07311
Cl        -1.04249       -0.34773       -2.49663
C         -2.28952        5.23533        0.87773
C         -3.67800        3.07964        0.89869
H          0.05600        5.36256       -0.77479
H          0.36143        3.62015       -0.76580
H         -1.13036        4.25036       -1.45826
H         -2.12102        6.13943        0.27458
H         -2.33473        5.58021        1.92128
H         -4.17019        2.47514        0.12477
C         -3.64216        4.56884        0.49783
C         -4.32637        2.82195        2.24225
H         -0.38030        4.36337        1.51811
H         -4.48238        5.09793        0.97077
H         -3.80252        4.66620       -0.58609
H         -5.39805        3.03239        2.21527
H         -4.19409        1.78377        2.55505
H         -3.89203        3.46099        3.01164
C         -0.68404       -4.65121        0.15852
C         -1.76575       -3.81639       -0.22918
C         -1.63138       -2.44818       -0.05850
C         -0.45477       -1.90320        0.38423
C          0.63491       -2.69497        0.63896
C          0.56745       -4.07146        0.49707
O         -0.87602       -6.05150        0.28033
C         -3.06384       -4.33804       -0.86858
H         -2.44991       -1.78581       -0.28573
H          1.55170       -2.22154        0.94816
C          1.86257       -4.87978        0.68471
C          3.81474        1.37864       -0.68164
C          3.13728        1.97544        0.41245
C          1.89583        1.47399        0.76578
C          1.31014        0.46414        0.04659
C          1.90964       -0.03573       -1.07887
C          3.14742        0.42558       -1.49314
O          5.16885        1.71354       -0.94994
C          3.74658        3.12073        1.23684
H          1.36982        1.86180        1.61995
H          1.38171       -0.78463       -1.64280
C          3.74648       -0.10898       -2.80372
C         -4.21312       -4.23611        0.14715
C         -3.40357       -3.47916       -2.10763
C         -2.93316       -5.79263       -1.35262
C          2.22549       -4.92432        2.17787
C          1.74167       -6.31484        0.14297
C          3.00788       -4.19904       -0.09698
C         -1.32742       -6.43282        1.56892
H         -4.35051       -3.20707        0.47780
H         -5.15116       -4.57593       -0.29109
H         -4.01452       -4.84440        1.02757
H         -2.56650       -3.46320       -2.80497
H         -4.27133       -3.87835       -2.63193
H         -3.63359       -2.44998       -1.83773
H         -2.78921       -6.47420       -0.51751
H         -3.82758       -6.11084       -1.88767
H         -2.08004       -5.89943       -2.02170
H          2.35931       -3.91915        2.57652
H          1.44273       -5.41024        2.75751
H          3.15235       -5.47482        2.33709
H          2.69696       -6.83664        0.19508
H          1.01972       -6.89246        0.71544
H          1.41430       -6.30683       -0.89609
H          3.23834       -3.21125        0.29856
H          3.92122       -4.79097       -0.04323
H          2.73999       -4.08882       -1.14739
H         -2.28020       -5.95335        1.78780
H         -1.45284       -7.51532        1.60020
H         -0.60135       -6.13222        2.32277
C          6.11506        0.88058       -0.29190
C          4.63649        4.02252        0.36211
C          2.64050        4.02360        1.82710
C          4.56418        2.53017        2.39549
C          2.62676       -0.51654       -3.78881
C          4.59018        0.97148       -3.50419
C          4.60882       -1.34477       -2.50722
H          5.01359        4.87173        0.93144
H          5.49494        3.47912       -0.02446
H          4.07409        4.40702       -0.48814
H          2.03887        3.49792        2.56703
H          3.07438        4.88999        2.32580
H          1.98192        4.38878        1.04059
H          5.00726        3.31894        3.00292
H          3.93176        1.92137        3.04132
H          5.36801        1.89673        2.02826
H          3.04183       -0.76797       -4.76447
H          2.08107       -1.39162       -3.43901
H          1.91591        0.29772       -3.92694
H          4.96392        0.61595       -4.46405
H          3.99535        1.86676       -3.68209
H          5.44921        1.25614       -2.90156
H          5.03822       -1.75007       -3.42308
H          4.01155       -2.12677       -2.04030
H          5.42567       -1.10434       -1.83144
H          6.73108        1.48252        0.37582
H          5.60604        0.10570        0.28275
H          6.76878        0.41702       -1.03057
