59
-75.79886056
Cl         1.50565        1.11818        2.31776
P          1.61697        0.10088       -0.75048
P         -1.53996       -0.14394       -0.80753
C          0.70168        0.55853       -2.28597
H          0.48954        1.62856       -2.24123
H          1.35975        0.39523       -3.14457
C         -0.56811       -0.24500       -2.38471
H         -0.33573       -1.29768       -2.56166
H         -1.20377        0.08459       -3.21233
C          2.23959       -1.63920       -0.87955
H          1.87418       -2.03157       -1.83591
C          3.23276        0.98283       -0.57674
H          3.41124        1.07962        0.50135
C         -2.37177       -1.73575       -0.33696
H         -2.11440       -1.90772        0.71542
C         -3.02347        0.95912       -0.94302
H         -3.19861        1.10222       -2.01619
C          3.77562       -1.48835       -0.89646
H          4.17016       -1.79408        0.08199
H          4.22253       -2.18467       -1.62163
C          4.21910       -0.02762       -1.18755
H          4.26564        0.13643       -2.27338
H          5.23849        0.15851       -0.81537
C         -3.86948       -1.41036       -0.47519
H         -4.21521       -1.74515       -1.46277
H         -4.45592       -1.98960        0.25408
C         -4.14580        0.10886       -0.32127
H         -4.22451        0.35749        0.74622
H         -5.11883        0.37889       -0.75937
C          1.71526       -2.47896        0.27999
H          0.62688       -2.35566        0.35603
H          2.11056       -2.06833        1.21914
C          3.23845        2.35929       -1.22956
H          4.27262        2.72657       -1.28682
H          2.90964        2.26098       -2.27209
C         -1.91714       -2.91865       -1.18572
H         -2.19200       -2.72993       -2.23176
H         -0.82116       -2.97350       -1.18066
C         -2.83512        2.30776       -0.25739
H         -3.79771        2.83768       -0.24129
H         -2.58379        2.13679        0.79714
C          2.06493       -3.95423        0.15457
H          3.14535       -4.10511        0.12135
H          1.65265       -4.37961       -0.76244
H          1.67717       -4.53945        0.99150
C          2.37085        3.36319       -0.48632
H          1.34236        3.01186       -0.40424
H          2.34993        4.33685       -0.98096
H          2.73215        3.51795        0.53212
C         -2.50140       -4.24294       -0.71767
H         -2.16050       -5.08093       -1.33003
H         -3.59212       -4.23179       -0.75593
H         -2.21809       -4.45439        0.31522
C         -1.77584        3.17457       -0.91483
H         -2.00876        3.35796       -1.96542
H         -1.67512        4.14503       -0.42346
H         -0.80125        2.69002       -0.87984
Cl        -1.74798        0.35231        2.28336
Pd        -0.01451        0.36490        0.85801
