105
-153.07171386
Cl         0.35317        1.98216        3.04342
Pd        -0.35973        1.42980        0.97437
P         -1.19422        0.73485       -1.06427
N         -0.20599       -0.40799       -1.95375
C          0.35753       -1.64584       -1.67777
C          0.27430       -2.30015       -0.42309
C          0.98573       -3.50167       -0.22105
C          0.89497       -4.18079        1.12482
C          1.97143       -5.25067        1.36463
C          2.11684       -6.16328        0.14362
C          2.50304       -5.35110       -1.10198
C          1.72746       -4.06695       -1.26075
C          1.76041       -3.42885       -2.49306
C          1.09487       -2.24857       -2.69669
H          1.15752       -1.75445       -3.65071
H          2.33708       -3.86528       -3.29103
H          3.57199       -5.10960       -1.06844
H          2.85138       -6.95805        0.33645
H          2.93209       -4.76060        1.56684
H          0.95215       -3.41685        1.90961
C         -0.69522       -1.88293        0.62000
C         -0.24143       -1.28324        1.82844
C         -1.15378       -1.12590        2.87682
C         -2.45599       -1.53384        2.74723
C         -2.90659       -2.14649        1.58434
C         -4.32448       -2.65024        1.53193
C         -4.48443       -3.85043        0.58866
C         -3.90812       -3.52073       -0.79143
C         -2.42395       -3.11880       -0.71120
C         -2.02527       -2.33124        0.51769
H         -1.80346       -4.02204       -0.75028
H         -4.48597       -2.69940       -1.22877
H         -5.53814       -4.15465        0.51320
H         -4.97858       -1.83280        1.20864
H         -3.14487       -1.39243        3.56266
H         -0.82348       -0.64960        3.78310
N          1.07095       -0.81920        1.99040
P          1.71924        0.25145        0.74235
C          2.92795       -0.63094       -0.24618
C          3.27234       -0.20777       -1.50737
C          4.24234       -0.89355       -2.21554
C          4.88561       -1.99022       -1.65624
C          4.53563       -2.38884       -0.37338
C          3.56167       -1.70454        0.33094
H          3.27984       -2.00730        1.32693
H          5.02411       -3.24069        0.06779
C          5.89632       -2.75533       -2.43699
H          4.50289       -0.58277       -3.21285
H          2.78013        0.64930       -1.93533
C          2.65575        1.61327        1.44584
C          3.44031        1.40586        2.55422
C          4.16757        2.45629        3.08439
C          4.11077        3.71781        2.50677
C          3.32823        3.89979        1.37432
C          2.60269        2.84873        0.84429
H          1.99129        2.98834       -0.03332
H          3.28865        4.87073        0.91086
C          4.90730        4.84445        3.06675
H          4.78395        2.30194        3.95349
H          3.48354        0.42471        2.99921
H          1.26182       -0.35719        2.87038
H         -0.22635       -0.11501       -2.92301
C         -1.00584        2.30768       -1.90775
C          0.25693        2.68334       -2.29936
C          0.45356        3.91126       -2.90480
C         -0.61725        4.76761       -3.12429
C         -1.88316        4.37436       -2.71026
C         -2.07648        3.14699       -2.10344
H         -3.05553        2.84569       -1.76817
H         -2.71614        5.04009       -2.85879
C         -0.40638        6.10315       -3.74824
H          1.44208        4.21308       -3.20626
H          1.08318        2.01425       -2.12386
C         -2.91959        0.27736       -1.22083
C         -3.33782       -0.29490       -2.39884
C         -4.67544       -0.59951       -2.58012
C         -5.60051       -0.33792       -1.57814
C         -5.16254        0.26396       -0.40664
C         -3.82712        0.57346       -0.23224
H         -3.49248        1.08039        0.65676
H         -5.87651        0.49920        0.36415
C         -7.04124       -0.66024       -1.77040
H         -5.00764       -1.04708       -3.50120
H         -2.61639       -0.49591       -3.17473
Cl        -2.13480        2.77784        1.25453
H          2.36969       -5.95839       -2.00646
H          1.74531       -5.83816        2.26571
H          1.16559       -6.67926       -0.03823
H         -0.10101       -4.62828        1.22362
H         -4.04364       -4.36726       -1.47910
H         -2.14256       -2.54049       -1.59938
H         -4.65655       -2.91107        2.54490
H         -3.95437       -4.71527        1.00722
H          5.41816       -3.54426       -3.01932
H          6.43453       -2.10536       -3.12829
H          6.63190       -3.22110       -1.77969
H          5.03257        4.73961        4.14533
H          5.89913        4.88052        2.61408
H          4.41775        5.80181        2.88287
H         -1.26781        6.39624       -4.35005
H         -0.25339        6.86696       -2.98460
H          0.46759        6.10025       -4.40116
H         -7.51202       -0.93292       -0.82476
H         -7.57855        0.19612       -2.18003
H         -7.16949       -1.49844       -2.45678
