111
-148.55634744
P         -1.62877        2.75675        0.70192
P         -0.60883       -0.23259        0.38616
C         -1.58772        1.65538        2.14284
C         -1.22375        0.33379        1.98876
C         -0.41002        4.13581        0.87853
C          0.69740        4.00757       -0.14594
C         -1.90034        2.14209        3.39591
H         -2.14749        3.18445        3.51476
C         -1.87273        1.29589        4.49087
H         -2.12049        1.67471        5.46900
C         -1.52364       -0.03140        4.33213
H         -1.49782       -0.68946        5.18507
C         -1.18836       -0.51090        3.07885
H         -0.88218       -1.53591        2.94543
Pd        -1.45909        1.33374       -1.10424
Cl        -2.15281        3.00656       -2.42158
Cl        -1.12569       -0.20446       -2.70991
C         -1.27714        5.40045        0.71676
C         -3.20099        3.72606        0.56360
H          1.25317        3.07666       -0.01884
H          0.28767        4.00685       -1.15805
H          1.40685        4.83524       -0.07409
H         -1.18873        5.75614       -0.31895
H         -0.88458        6.21665        1.34188
H         -3.43981        3.75247       -0.50776
C         -2.77423        5.12654        1.03838
C         -4.34363        3.10498        1.33879
H         -0.01450        4.06514        1.90007
H         -2.93902        5.20056        2.12206
H         -3.42041        5.89602        0.58882
H         -4.53295        2.08035        1.01075
H         -4.12356        3.07093        2.40607
H         -5.26610        3.67656        1.21403
C         -0.73074       -4.74520       -0.20524
C          0.21133       -4.16897        0.68499
C          0.22614       -2.79039        0.82074
C         -0.69977       -2.00681        0.18242
C         -1.68125       -2.56761       -0.59112
C         -1.74448       -3.93809       -0.78218
O         -0.63560       -6.11997       -0.54937
C          1.22894       -5.00604        1.47615
H          0.97765       -2.30375        1.41912
H         -2.38434       -1.91057       -1.07281
C         -2.87090       -4.51975       -1.65057
C          3.67839        1.25997       -0.01910
C          3.03445        1.29541        1.24411
C          1.74906        0.79077        1.34067
C          1.09052        0.32069        0.23508
C          1.67191        0.37460       -1.00368
C          2.94820        0.88076       -1.17437
O          5.05811        1.58161       -0.11965
C          3.71487        1.86350        2.49890
H          1.23841        0.76526        2.28691
H          1.08937        0.04498       -1.84588
C          3.50605        1.02697       -2.59872
C          1.56837       -4.32105        2.81999
C          0.66240       -6.39683        1.81526
C          2.52087       -5.14419        0.65654
C         -2.40897       -4.56172       -3.11526
C         -3.26739       -5.92968       -1.17651
C         -4.13976       -3.64170       -1.56120
C          0.20624       -6.38044       -1.66576
H          2.18873       -4.96925        3.43856
H          2.12205       -3.39486        2.67344
H          0.66095       -4.09390        3.37900
H          0.47085       -6.97804        0.91693
H          1.35901       -6.96413        2.43203
H         -0.27664       -6.30586        2.36017
H          3.26737       -5.72372        1.19910
H          2.33483       -5.64079       -0.29273
H          2.94602       -4.16439        0.43979
H         -3.19317       -4.95526       -3.76138
H         -2.15169       -3.56238       -3.46570
H         -1.52931       -5.18965       -3.23356
H         -3.55423       -5.91447       -0.12559
H         -4.10859       -6.31459       -1.75244
H         -2.44501       -6.63192       -1.28735
H         -4.42850       -3.48194       -0.52270
H         -3.99165       -2.67040       -2.03074
H         -4.97638       -4.11826       -2.07164
H          0.61682       -5.44913       -2.05796
H          1.02092       -7.03895       -1.36509
H         -0.36608       -6.88237       -2.44574
C          5.92395        0.45913       -0.01049
C          2.66497        2.39992        3.49874
C          4.52197        0.75236        3.18658
C          4.63504        3.04345        2.13724
C          4.21319       -0.27462       -3.00439
C          2.36287        1.30384       -3.60298
C          4.48008        2.21526       -2.69408
H          2.06661        1.59636        3.92578
H          3.14900        2.91353        4.32907
H          1.99412        3.10827        3.01396
H          5.29456        0.36225        2.52856
H          5.00538        1.12286        4.09019
H          3.87364       -0.07792        3.46594
H          4.07750        3.81699        1.61002
H          5.07118        3.48878        3.03106
H          5.45311        2.72524        1.49547
H          3.52004       -1.11496       -2.97253
H          4.61163       -0.20359       -4.01612
H          5.03806       -0.50107       -2.33292
H          2.76226        1.54029       -4.58882
H          1.71073        0.44007       -3.72209
H          1.75578        2.14800       -3.27677
H          4.82440        2.35876       -3.71794
H          5.35727        2.06109       -2.07087
H          3.99568        3.13478       -2.36698
H          5.34903       -0.44825        0.17896
H          6.49305        0.34326       -0.93259
H          6.62801        0.62105        0.80562
