58
-89.86530088
P          1.72509        0.30508        0.67725
C          3.02074        1.44571        0.16928
C          4.04119        1.01318       -0.64686
C          5.01598        1.90154       -1.06344
C          4.95822        3.22206       -0.66469
C          3.92612        3.65614        0.14324
C          2.95220        2.76484        0.55732
H          2.13123        3.09789        1.17186
H          4.06178       -0.01445       -0.97177
C          2.26902       -1.40226        0.53044
C          1.40442       -2.35787        0.05060
C          1.80515       -3.67854       -0.02548
C          3.07312       -4.03581        0.38718
C          3.93488       -3.07712        0.88283
C          3.52774       -1.75695        0.96019
H          4.18474       -1.00097        1.36034
H          0.40888       -2.07435       -0.24193
C          1.33399        0.59130        2.44615
C          0.29580       -0.38619        2.97735
C         -1.13364        0.01541        2.65576
P         -1.62637       -0.14601        0.88825
C         -1.86326       -1.86134        0.40263
C         -1.75871       -2.89401        1.30740
C         -1.91162       -4.19997        0.87802
C         -2.16890       -4.46371       -0.45298
C         -2.27775       -3.42541       -1.35630
C         -2.12451       -2.12173       -0.92336
H         -2.19933       -1.29577       -1.61267
H         -1.55289       -2.68187        2.34332
C         -3.16202        0.77282        0.73801
C         -4.35012        0.10796        0.53863
C         -5.52658        0.82498        0.41649
C         -5.50268        2.20362        0.49448
C         -4.30748        2.86614        0.69426
C         -3.13230        2.14618        0.81688
H         -2.18938        2.64941        0.96358
H         -4.35154       -0.96811        0.47403
Pd        -0.11440        0.61342       -0.71496
Cl         1.33488        1.43979       -2.21697
Cl        -1.94452        1.01188       -1.96418
H         -1.85493       -0.57511        3.22560
H         -1.30310        1.05747        2.93395
H          0.50071       -1.39037        2.58278
H          0.40608       -0.47611        4.06955
H          2.28491        0.49175        2.97561
H          1.00319        1.62321        2.57267
H          5.81414        1.56420       -1.70406
H          3.87460        4.68911        0.44595
H          1.12442       -4.42593       -0.39849
H          4.92204       -3.35641        1.21265
H         -1.82662       -5.01126        1.58223
H         -2.47861       -3.62870       -2.39528
H         -6.45863        0.30813        0.25711
H         -4.28813        3.94213        0.74995
H          5.71522        3.91651       -0.99089
H          3.38838       -5.06481        0.32834
H         -2.28595       -5.48177       -0.78699
H         -6.41820        2.76384        0.39609
