171
-217.84409200
P         -1.61426        0.37905       -0.42073
P          1.59256       -0.39565       -0.31625
C         -0.88483        1.29507       -1.77835
C          0.91398       -1.40074       -1.63965
C         -0.06802        0.64748       -2.69817
C          0.56008        1.41279       -3.69988
C          0.31290        2.77389       -3.76667
C         -0.52951        3.38960       -2.86514
C         -1.11990        2.64521       -1.86272
C          1.13792       -2.75593       -1.60647
C          0.57315       -3.57838       -2.56066
C         -0.23160       -3.03359       -3.53824
C         -0.47024       -1.66998       -3.58910
C          0.13081       -0.82736       -2.63469
Cl         1.44742        0.23390        2.92913
Cl        -1.71055       -0.52211        2.75135
C         -1.34071       -1.11744       -4.66199
C          1.48099        0.78964       -4.69002
H         -0.72162        4.44760       -2.93780
H         -1.76893        3.11829       -1.14337
H          1.75946       -3.17489       -0.83217
H          0.75635       -4.64022       -2.53624
H          0.79085        3.35314       -4.53869
H         -0.68547       -3.67157       -4.27776
C         -3.98448       -3.23775       -1.74044
C         -2.94035       -3.40824       -0.83978
C         -2.22452       -2.28220       -0.45384
C         -2.53696       -1.05087       -0.97239
C         -3.56405       -0.89941       -1.87142
C         -4.32002       -1.99598       -2.26807
H         -4.55686       -4.10077       -2.02361
H         -1.42019       -2.35335        0.25773
H         -3.78498        0.08388       -2.25242
C         -4.16122        2.90945        2.35851
C         -4.76690        1.87971        1.64952
C         -3.97922        1.14110        0.77494
C         -2.64909        1.43984        0.60940
C         -2.07110        2.46953        1.31157
C         -2.81498        3.22010        2.21208
H         -4.75583        3.46587        3.05824
H         -4.39105        0.30597        0.23730
H         -1.01958        2.66562        1.18538
C          4.37258       -2.79253        2.35275
C          3.02531       -3.13195        2.31347
C          2.19899       -2.40930        1.46357
C          2.69957       -1.37544        0.71211
C          4.03006       -1.04402        0.77538
C          4.89876       -1.75518        1.59289
H          5.03412       -3.33889        2.99824
H          1.14864       -2.63956        1.40323
H          4.38361       -0.21465        0.18976
C          3.85754        3.29544       -1.61432
C          2.85587        3.42587       -0.65992
C          2.14354        2.28621       -0.31027
C          2.44222        1.07497       -0.88283
C          3.44036        0.96032       -1.81900
C          4.17213        2.07763       -2.20483
H          4.42394        4.16131       -1.90062
H          1.35577        2.33672        0.42130
H          3.65011       -0.01172       -2.23222
Pd        -0.06874       -0.01073        1.29223
C         -2.40123       -5.79046       -1.42734
C         -2.63592       -4.80056       -0.27091
C         -3.82960       -5.26797        0.58044
C         -1.37608       -4.78418        0.61578
H         -1.58757       -5.44942       -2.06627
H         -2.14069       -6.77831       -1.04777
H         -3.29033       -5.89780       -2.04721
H         -3.64031       -6.25040        1.01262
H         -4.01611       -4.56965        1.39619
H         -4.73808       -5.33391       -0.01734
H         -1.15159       -5.78366        0.98789
H         -0.51106       -4.43602        0.05253
H         -1.51122       -4.13455        1.48021
C         -5.01712       -1.20465       -4.55218
C         -5.50982       -1.79760       -3.22035
C         -6.51877       -0.83310       -2.57134
C         -6.23075       -3.12664       -3.51849
H         -4.33163       -1.89068       -5.04762
H         -5.85177       -1.02172       -5.22879
H         -4.49980       -0.25844       -4.39848
H         -7.38795       -0.68700       -3.21242
H         -6.86657       -1.22769       -1.61697
H         -6.07049        0.14325       -2.39130
H         -7.06950       -2.96753       -4.19615
H         -5.55684       -3.84121       -3.99081
H         -6.62539       -3.57261       -2.60570
C         -7.10202        2.80727        1.65426
C         -6.24580        1.55011        1.89702
C         -6.41702        1.07495        3.35100
C         -6.74399        0.43758        0.95509
H         -8.16089        2.59009        1.79384
H         -6.83560        3.61004        2.34049
H         -6.96449        3.17555        0.63775
H         -6.11937        1.84962        4.05679
H         -7.45485        0.81421        3.55757
H         -5.80219        0.19555        3.54197
H         -7.79988        0.22830        1.12607
H         -6.62973        0.73493       -0.08650
H         -6.19524       -0.49044        1.11457
C         -1.00824        3.63487        3.89290
C         -2.11514        4.29857        3.05086
C         -3.09503        5.00902        4.00402
C         -1.49647        5.35111        2.11488
H         -0.26697        3.14707        3.26155
H         -0.49081        4.36985        4.50897
H         -1.42988        2.87616        4.55175
H         -3.89553        5.49888        3.44991
H         -3.53995        4.30423        4.70618
H         -2.58111        5.77351        4.58663
H         -2.26323        5.81575        1.49530
H         -0.99755        6.13597        2.68312
H         -0.76030        4.90007        1.45329
C          1.19244       -3.73904        3.92049
C          2.42848       -4.26336        3.16175
C          3.43936       -4.79348        4.19679
C          2.01795       -5.41918        2.23371
H          1.45572       -2.87846        4.53499
H          0.40282       -3.43002        3.23733
H          0.78011       -4.50794        4.57341
H          4.30731       -5.23709        3.70961
H          3.78146       -3.99337        4.85303
H          2.98580       -5.56361        4.82063
H          1.56819       -6.23524        2.79895
H          1.29558       -5.08498        1.49100
H          2.88376       -5.81200        1.70097
C          6.77305       -0.26748        0.72749
C          6.39064       -1.40713        1.69297
C          7.23116       -2.64697        1.33548
C          6.70833       -0.95853        3.13067
H          6.22818        0.64679        0.96227
H          7.83724       -0.04236        0.79595
H          6.55919       -0.54283       -0.30510
H          6.99545       -2.99409        0.32960
H          8.29642       -2.41966        1.37302
H          7.04247       -3.46804        2.02594
H          6.49819       -1.75161        3.84738
H          7.75865       -0.68578        3.23183
H          6.10580       -0.09265        3.40451
C          2.35772        4.60080        1.51119
C          2.50613        4.77404       -0.01377
C          1.18326        5.27855       -0.61111
C          3.60090        5.82842       -0.26949
H          3.27150        4.19304        1.94278
H          2.15343        5.55628        1.99403
H          1.54071        3.92665        1.76116
H          0.87791        6.21942       -0.15367
H          1.28423        5.44072       -1.68396
H          0.38780        4.55075       -0.45871
H          3.37029        6.75842        0.25010
H          4.56965        5.47884        0.08725
H          3.68616        6.06170       -1.33044
C          5.11468        2.98749       -4.35308
C          5.33965        1.99235       -3.19871
C          5.47806        0.57687       -3.79255
C          6.64743        2.34379       -2.46569
H          5.91948        2.92189       -5.08509
H          4.17653        2.78248       -4.86661
H          5.07944        4.01456       -3.99226
H          5.68823       -0.15676       -3.01452
H          4.56859        0.27742       -4.31229
H          6.29727        0.53722       -4.51035
H          6.61433        3.35555       -2.06296
H          6.81954        1.65990       -1.63524
H          7.50210        2.27932       -3.13887
H         -0.75829       -0.87201       -5.55071
H          1.77233       -0.21736       -4.38860
H         -1.85083       -0.21220       -4.32962
H         -2.10238       -1.84073       -4.95396
H          2.39269        1.37805       -4.79184
H          1.01314        0.72759       -5.67347
