105
-153.06037123
Cl         0.56314        3.78354        1.34918
Pd        -0.10578        1.99406        0.16069
P         -0.70631        0.21278       -1.30166
N          0.16588       -1.20782       -1.90877
C          0.24567       -2.52829       -1.47708
C         -0.10759       -2.98117       -0.17599
C          0.19826       -4.30906        0.19711
C          0.04154       -4.73294        1.63980
C         -0.11176       -6.25016        1.81596
C          1.01385       -6.98688        1.08404
C          1.00668       -6.65278       -0.41715
C          0.72382       -5.20367       -0.73867
C          0.99092       -4.75602       -2.02515
C          0.77833       -3.44934       -2.37860
H          1.03159       -3.11453       -3.36972
H          1.39335       -5.44872       -2.74502
H          1.96719       -6.93133       -0.86922
H          1.97857       -6.69510        1.51801
H         -0.13551       -6.52390        2.88031
H          0.92250       -4.38656        2.19351
C         -0.71257       -2.08727        0.84811
C          0.09568       -1.07877        1.43454
C         -0.38644       -0.36850        2.53424
C         -1.63968       -0.62238        3.02784
C         -2.46742       -1.57888        2.44684
C         -3.82816       -1.80558        3.06402
C         -4.75059       -2.76045        2.28417
C         -3.96082       -3.90275        1.63708
C         -2.89240       -3.34054        0.68988
C         -2.00695       -2.31330        1.35009
H         -2.28528       -4.15154        0.27143
H         -4.63089       -4.59548        1.10847
H         -5.27785       -2.20175        1.50175
H         -4.31759       -0.83172        3.19228
H         -2.00355       -0.06628        3.87515
H          0.22783        0.39640        2.97267
N          1.26845       -0.72813        0.77167
P          1.80196        0.89922        0.96277
C          2.92843        1.34125       -0.35415
C          3.14906        2.67012       -0.62729
C          3.93402        3.02697       -1.70806
C          4.48762        2.05341       -2.52909
C          4.25509        0.71645       -2.23324
C          3.47085        0.36137       -1.15063
H          3.26930       -0.67476       -0.93165
H          4.68585       -0.04503       -2.86069
C          5.33895        2.43635       -3.68917
H          4.10905        4.06599       -1.92885
H          2.66731        3.41781       -0.01698
C          2.56283        1.05186        2.57748
C          3.26104       -0.02706        3.06477
C          3.85707        0.04635        4.31165
C          3.76019        1.20360        5.07321
C          3.04057        2.27780        4.56700
C          2.44694        2.20058        3.32184
H          1.88285        3.02756        2.92566
H          2.94602        3.17414        5.15589
C          4.37793        1.27548        6.42635
H          4.39867       -0.79824        4.70197
H          3.32391       -0.92515        2.47018
H          1.13841       -0.85776       -0.23060
H          0.39675       -1.02670       -2.87774
C         -0.57339        1.35780       -2.68443
C          0.69085        1.73868       -3.06596
C          0.85601        2.62891       -4.11105
C         -0.24633        3.13728       -4.78432
C         -1.51549        2.74643       -4.37794
C         -1.67790        1.85631       -3.33256
H         -2.66230        1.55995       -3.00997
H         -2.37720        3.14994       -4.88166
C         -0.07278        4.12151       -5.88808
H          1.84444        2.94020       -4.40272
H          1.54475        1.35492       -2.53173
C         -2.43462       -0.24053       -1.16365
C         -3.23872        0.23976       -0.15814
C         -4.57749       -0.10250       -0.12446
C         -5.11996       -0.93181       -1.09726
C         -4.29174       -1.41068       -2.10269
C         -2.95212       -1.06466       -2.13444
H         -2.30276       -1.43639       -2.91156
H         -4.70167       -2.05880       -2.85828
C         -6.55690       -1.32076       -1.06130
H         -5.20945        0.27639        0.66038
H         -2.81753        0.88177        0.59810
Cl        -2.06048        2.98825       -0.32443
H          0.25639       -7.26980       -0.92606
H         -1.07977       -6.56655        1.40741
H          0.93628       -8.07164        1.24377
H         -0.80527       -4.21378        2.10093
H         -3.47545       -4.49901        2.41982
H         -3.37806       -2.87437       -0.17360
H         -3.68035       -2.19129        4.07991
H         -5.53987       -3.15813        2.93756
H          6.38425        2.52467       -3.39014
H          5.27768        1.69271       -4.48501
H          5.02605        3.39409       -4.10753
H          5.26676        0.64598        6.48760
H          4.67845        2.29593        6.66806
H          3.67530        0.94139        7.19095
H         -0.08299        5.14148       -5.50150
H          0.87404        3.96790       -6.40772
H         -0.87268        4.03236       -6.62447
H         -7.08922       -0.80591       -0.26036
H         -7.05030       -1.07219       -2.00193
H         -6.66415       -2.39411       -0.89784
