111
-148.55193163
P         -2.65285        1.88059        0.58724
P          0.21006        0.49892        0.43401
C         -1.70194        1.57188        2.10616
C         -0.43628        1.03169        2.02846
C         -3.76182        3.34896        0.82224
C         -3.55415        4.39998       -0.24530
C         -2.24311        1.86926        3.34137
H         -3.24144        2.26956        3.40468
C         -1.51018        1.63493        4.49212
H         -1.93377        1.86805        5.45540
C         -0.23922        1.10011        4.40855
H          0.33009        0.91420        5.30439
C          0.29703        0.79161        3.17167
H          1.27882        0.35255        3.08878
Pd        -1.10054        1.61719       -1.11953
Cl        -2.63485        2.50830       -2.48288
Cl         0.50800        1.16894       -2.62166
C         -5.17171        2.72097        0.81538
C         -3.90776        0.56810        0.22880
H         -2.50976        4.71626       -0.29465
H         -3.82798        4.01001       -1.22611
H         -4.16877        5.28466       -0.06313
H         -5.88942        3.43625        0.38785
H         -5.50910        2.54600        1.84756
H         -3.59946        0.07752       -0.70491
C         -5.20451        1.37896        0.03062
C         -3.97675       -0.43782        1.35705
H         -3.52059        3.76903        1.80768
H         -6.06882        0.77133        0.33633
H         -5.35183        1.58859       -1.03919
H         -3.00985       -0.91886        1.51677
H         -4.25857        0.05048        2.29176
H         -4.71315       -1.21925        1.15471
C         -1.41761       -3.68818       -0.31354
C         -1.02147       -2.87939       -1.40905
C         -0.52217       -1.61752       -1.14176
C         -0.35858       -1.17657        0.14403
C         -0.62947       -1.99802        1.20656
C         -1.11983       -3.27819        1.01163
O         -2.15137       -4.88252       -0.54129
C         -1.17559       -3.32430       -2.87088
H         -0.26528       -0.94439       -1.94036
H         -0.47159       -1.61595        2.19984
C         -1.35262       -4.18080        2.23297
C          4.75118        0.59259        0.13227
C          4.09812       -0.52348        0.71980
C          2.71426       -0.51644        0.77426
C          1.99370        0.57037        0.35223
C          2.62458        1.70137       -0.09407
C          4.00608        1.76038       -0.18268
O          6.12487        0.51022       -0.21196
C          4.83168       -1.73988        1.30970
H          2.17803       -1.37693        1.13808
H          2.02000        2.53971       -0.39659
C          4.64113        3.09103       -0.62059
C         -1.01946       -4.84949       -3.00760
C         -2.55242       -2.88223       -3.38988
C         -0.08430       -2.67760       -3.75451
C         -0.31877       -3.87114        3.33978
C         -2.76150       -3.93009        2.79194
C         -1.18426       -5.66648        1.86636
C         -3.56151       -4.69780       -0.55032
H         -1.80607       -5.37815       -2.47504
H         -1.06540       -5.15616       -4.05225
H         -0.06303       -5.17515       -2.59993
H         -3.35493       -3.33000       -2.80843
H         -2.65934       -1.79963       -3.32335
H         -2.68864       -3.17171       -4.43148
H          0.90734       -2.86043       -3.34150
H         -0.10845       -3.08971       -4.76298
H         -0.22399       -1.60159       -3.84643
H         -0.39697       -4.59080        4.15438
H          0.69620       -3.92001        2.94603
H         -0.47179       -2.88297        3.77102
H         -2.87314       -2.89279        3.10635
H         -3.52440       -4.13354        2.04408
H         -2.95758       -4.56564        3.65509
H         -1.93373       -5.98498        1.14622
H         -0.20290       -5.84449        1.42790
H         -1.28290       -6.30114        2.74668
H         -4.01539       -5.30337        0.23394
H         -3.80902       -3.64792       -0.38787
H         -3.96636       -5.02194       -1.50893
C          6.33388       -0.00712       -1.51559
C          6.33201       -1.47356        1.52189
C          4.23336       -2.07723        2.69378
C          4.64962       -2.94831        0.37622
C          3.99046        4.25340        0.16159
C          6.15099        3.14548       -0.32951
C          4.39888        3.29915       -2.12491
H          6.48180       -0.57915        2.12559
H          6.81184       -2.31063        2.02850
H          6.84452       -1.32565        0.57438
H          4.78456       -2.88906        3.16771
H          4.27791       -1.21087        3.35315
H          3.19360       -2.39170        2.62059
H          5.14012       -3.83217        0.78320
H          3.59370       -3.18207        0.24297
H          5.07248       -2.75315       -0.60736
H          4.07616        4.08942        1.23541
H          4.47665        5.19985       -0.07367
H          2.93465        4.36352       -0.07976
H          6.69469        2.41823       -0.92766
H          6.55975        4.12975       -0.55692
H          6.34809        2.92913        0.71987
H          4.86104        2.50731       -2.71106
H          4.81349        4.24993       -2.45870
H          3.33309        3.29911       -2.35129
H          7.40366       -0.03680       -1.72350
H          5.92475       -1.01333       -1.58886
H          5.84105        0.62528       -2.25212
