111
-148.55558324
P         -2.33119        2.35601        0.62356
P          0.02330        0.23962        0.46052
C         -1.39356        1.94309        2.11339
C         -0.38977        1.00280        2.04260
C         -2.41402        4.18313        0.36076
C         -1.52894        4.59663       -0.79489
C         -1.69230        2.54675        3.31773
H         -2.47547        3.28626        3.36193
C         -0.98783        2.19510        4.45632
H         -1.22000        2.66459        5.39828
C          0.00689        1.23838        4.38763
H          0.55104        0.95956        5.27497
C          0.30496        0.63823        3.17723
H          1.07354       -0.11591        3.10850
Pd        -1.53719        1.02178       -1.07599
Cl        -3.02065        1.96132       -2.46936
Cl        -0.73569       -0.45206       -2.57213
C         -3.91724        4.43580        0.13995
C         -4.13668        1.96238        0.76259
H         -1.57736        5.67404       -0.96995
H         -0.48553        4.32792       -0.61179
H         -1.83817        4.09785       -1.71534
H         -4.12071        4.42553       -0.93974
H         -4.19121        5.44521        0.48256
H         -4.40779        1.46621       -0.17897
C         -4.78996        3.35481        0.83880
C         -4.43100        1.06227        1.94429
H         -2.07804        4.64697        1.29739
H         -4.92972        3.62318        1.89495
H         -5.80142        3.32674        0.40582
H         -5.49378        0.81666        2.00397
H         -3.87000        0.12739        1.88258
H         -4.15256        1.54666        2.88135
C         -0.88933       -4.21254        0.70602
C         -1.93867       -3.27200        0.54424
C         -1.61234       -1.92667        0.51242
C         -0.30534       -1.51606        0.53414
C          0.71874       -2.42546        0.57561
C          0.46141       -3.78558        0.63007
O         -1.18997       -5.57275        0.98264
C         -3.41320       -3.68117        0.40373
H         -2.38266       -1.17637        0.46552
H          1.72850       -2.05411        0.57112
C          1.63860       -4.77336        0.63728
C          4.28183        1.16586       -0.90100
C          3.41162        0.41426       -1.73007
C          2.12083        0.18691       -1.28604
C          1.70536        0.60411       -0.04928
C          2.57374        1.24851        0.79340
C          3.87920        1.51287        0.41384
O          5.54013        1.59924       -1.39760
C          3.83084       -0.12362       -3.10733
H          1.40056       -0.30035       -1.91829
H          2.21321        1.55632        1.75803
C          4.82743        2.19049        1.41618
C         -3.54522       -5.06367       -0.26051
C         -4.07390       -3.69317        1.79012
C         -4.16836       -2.67682       -0.49809
C          2.84218       -4.19456       -0.13995
C          2.06992       -5.03783        2.08753
C          1.25673       -6.09638       -0.05152
C         -1.34725       -5.85903        2.36660
H         -3.03974       -5.07444       -1.22559
H         -3.10424       -5.84376        0.35486
H         -4.59119       -5.32299       -0.42208
H         -5.12594       -3.96805        1.71868
H         -3.58496       -4.40307        2.45328
H         -4.01287       -2.70931        2.25475
H         -3.64880       -2.54204       -1.44649
H         -5.17532       -3.03218       -0.71521
H         -4.26976       -1.70235       -0.02320
H          3.63387       -4.93717       -0.23663
H          2.54229       -3.89352       -1.14289
H          3.27371       -3.33141        0.36462
H          2.37092       -4.11086        2.57511
H          1.25663       -5.46793        2.66739
H          2.91210       -5.72833        2.12493
H          0.46779       -6.61227        0.49019
H          0.90125       -5.91239       -1.06481
H          2.11157       -6.76979       -0.10843
H         -2.35220       -6.23837        2.55080
H         -0.63300       -6.62685        2.66360
H         -1.18304       -4.96011        2.96214
C          5.50404        2.86319       -2.04868
C          5.32847       -0.47879       -3.13265
C          3.05739       -1.41851       -3.44576
C          3.51400        0.92794       -4.18135
C          4.43755        1.83024        2.86818
C          6.27847        1.71806        1.21225
C          4.73820        3.71513        1.25070
H          5.56587       -1.19467       -2.34637
H          5.61071       -0.91896       -4.08872
H          5.94841        0.40097       -2.98020
H          3.43907       -1.86925       -4.36151
H          3.16062       -2.14963       -2.64527
H          1.99682       -1.22777       -3.60211
H          4.05058        1.85536       -3.99674
H          3.79131        0.56968       -5.17236
H          2.44878        1.15784       -4.19145
H          4.36674        0.75014        2.99419
H          5.18271        2.20083        3.57177
H          3.48379        2.27287        3.15180
H          6.94021        2.14919        1.96307
H          6.34261        0.63298        1.28624
H          6.65702        2.00847        0.23543
H          5.02793        4.02100        0.24845
H          5.39132        4.22369        1.95942
H          3.71929        4.06203        1.42138
H          6.18806        3.55019       -1.55069
H          5.82838        2.75193       -3.08317
H          4.49409        3.27446       -2.02616
