58
-89.86347901
P          1.73666       -0.20489        0.82716
C          1.84038        1.58202        1.01069
C          0.83776        2.38955        0.52722
C          0.90602        3.75857        0.69877
C          1.98257        4.31384        1.36068
C          2.98349        3.50139        1.85612
C          2.90815        2.13035        1.68447
H          3.67713        1.48334        2.07641
H         -0.01032        1.94849        0.03701
C          3.30092       -0.88481        0.25691
C          3.52120       -2.24061        0.34805
C          4.70602       -2.77887       -0.12211
C          5.65868       -1.95623       -0.68968
C          5.42730       -0.59910       -0.79393
C          4.24208       -0.06436       -0.32238
H          4.04065        0.99011       -0.41852
H          2.75900       -2.87758        0.76795
C          1.31888       -0.90102        2.48457
C         -0.16918       -1.11359        2.71602
C         -1.02620        0.10510        2.38369
P         -1.62363        0.04110        0.64175
C         -2.91604       -1.20511        0.55733
C         -4.22498       -0.81181        0.72115
C         -5.23882       -1.75164        0.66725
C         -4.93293       -3.08060        0.45053
C         -3.61842       -3.47099        0.28803
C         -2.60702       -2.52912        0.34325
H         -1.57882       -2.82204        0.20476
H         -4.44785        0.23042        0.88588
C         -2.28949        1.62810        0.11685
C         -2.62081        2.59764        1.03676
C         -3.10660        3.81788        0.60264
C         -3.26079        4.05761       -0.74866
C         -2.93590        3.07937       -1.66718
C         -2.45084        1.86168       -1.22906
H         -2.19898        1.08153       -1.92852
H         -2.49529        2.40187        2.08917
Pd         0.10081       -0.61322       -0.77974
Cl         1.76670       -1.09597       -2.20528
Cl        -1.52111       -1.04563       -2.27805
H         -1.92321        0.15401        3.00610
H         -0.47201        1.03145        2.54344
H         -0.51855       -1.96552        2.11661
H         -0.33197       -1.41750        3.76216
H          1.87633       -1.83120        2.61350
H          1.72333       -0.19457        3.21279
H          0.11565        4.38739        0.32307
H          3.82113        3.93338        2.37862
H          4.88048       -3.84000       -0.05245
H          6.16480        0.04206       -1.24811
H         -6.26459       -1.44578        0.79171
H         -3.37985       -4.50738        0.11400
H         -3.36282        4.58094        1.31918
H         -3.05994        3.26264       -2.72179
H          2.03910        5.38169        1.49571
H          6.58018       -2.37524       -1.05985
H         -5.72155       -3.81394        0.40531
H         -3.63842        5.00883       -1.08677
