75
-122.80713449
P          1.77165       -0.63217        0.15274
C          3.01860       -1.44575       -0.85856
C          4.34453       -1.35650       -0.50067
C          5.30464       -2.01484       -1.24747
C          4.92770       -2.77001       -2.34006
C          3.59408       -2.87653       -2.68083
C          2.63651       -2.21774       -1.93150
H          1.59076       -2.30243       -2.18072
H          3.29831       -3.47153       -3.52920
H          5.67491       -3.28204       -2.92415
H          6.34417       -1.94218       -0.97293
H          4.62186       -0.79448        0.37699
C          1.75766       -1.51676        1.72580
C          1.36528       -0.88989        2.88614
C          1.43405       -1.55856        4.09368
C          1.89228       -2.86006        4.13262
C          2.27879       -3.49164        2.96742
C          2.21308       -2.81560        1.76248
H          2.52444       -3.29434        0.84806
H          2.63397       -4.50860        2.99580
H          1.94232       -3.38545        5.07233
H          1.12194       -1.06681        5.00030
H          0.98667        0.11637        2.83947
C          2.16163        1.10181        0.47423
C          3.31284        1.74934        0.08983
C          3.46898        3.10896        0.32170
C          2.43969        3.80639        0.95363
C          1.27235        3.17676        1.32382
C          1.12667        1.80260        1.07731
O         -0.06702        1.13130        1.38867
C         -1.25416        1.81023        1.07079
C         -1.41372        3.17334        1.36584
C         -2.60265        3.79683        1.05698
C         -3.63719        3.11045        0.42109
C         -3.45029        1.77338        0.09713
C         -2.27424        1.13623        0.41643
P         -1.87366       -0.52370       -0.14605
C         -1.58437       -1.63464        1.23256
C         -1.91309       -1.25302        2.51291
C         -1.78883       -2.15782        3.55122
C         -1.34187       -3.43940        3.29642
C         -1.01628       -3.81786        2.00888
C         -1.14168       -2.91117        0.97158
H         -0.90876       -3.19519       -0.04289
H         -0.66458       -4.81702        1.81124
H         -1.24035       -4.14406        4.10555
H         -2.03885       -1.86170        4.55665
H         -2.26734       -0.25085        2.69255
C         -3.26826       -1.20177       -1.06969
C         -4.16632       -2.00267       -0.39983
C         -5.25381       -2.53381       -1.06960
C         -5.43884       -2.25616       -2.40916
C         -4.54259       -1.44597       -3.07656
C         -3.45948       -0.91753       -2.40147
H         -2.77027       -0.26211       -2.90393
H         -4.68948       -1.22080       -4.12016
H         -6.28536       -2.66919       -2.93312
H         -5.95441       -3.16316       -0.54579
H         -4.01233       -2.21094        0.64685
Pd         0.07836        0.05462       -1.37791
Cl        -1.34615        1.28430       -2.62114
Cl         1.71866        0.54608       -2.84066
H         -4.21822        1.23550       -0.43148
C         -4.91859        3.79235        0.09689
H         -4.78573        4.87301        0.03211
H         -5.66924        3.59033        0.86199
H         -5.31222        3.44947       -0.86092
H         -2.72410        4.83792        1.29867
S         -0.06118        4.05212        2.10513
H          2.54959        4.85880        1.14691
C          4.72330        3.80200       -0.07648
H          4.08578        1.20603       -0.42266
H          5.48307        3.70436        0.69996
H          5.12694        3.38155       -0.99853
H          4.54938        4.86527       -0.24649
