111
-148.54822488
P         -2.53305        2.14121        0.88079
P          0.05667        0.36110        0.49521
C         -1.50315        1.72251        2.31694
C         -0.34222        1.00433        2.12895
C         -3.35931        3.78485        1.11421
C         -2.64847        4.91213        0.39830
C         -1.86619        2.11265        3.59088
H         -2.78777        2.64851        3.74472
C         -1.05607        1.79587        4.66777
H         -1.34010        2.10158        5.66153
C          0.11375        1.08753        4.47218
H          0.74321        0.83939        5.31086
C          0.46915        0.68500        3.19758
H          1.36718        0.11140        3.02765
Pd        -1.27217        1.55555       -0.97737
Cl        -2.28790        3.14058       -2.18324
Cl        -0.01849        0.69878       -2.63856
C         -4.79396        3.50523        0.63367
C         -4.02538        1.05960        0.68448
H         -1.60609        4.98820        0.71583
H         -2.65215        4.75419       -0.67960
H         -3.13237        5.87297        0.58766
H         -4.85028        3.70580       -0.44525
H         -5.50090        4.20605        1.10360
H         -4.01388        0.71102       -0.35696
C         -5.20122        2.02978        0.91084
C         -3.98145       -0.11046        1.64298
H         -3.36228        3.97328        2.19487
H         -5.54150        1.93521        1.95108
H         -6.06324        1.73815        0.29209
H         -4.87266       -0.73579        1.55236
H         -3.10808       -0.73936        1.45870
H         -3.92225        0.23743        2.67603
C         -1.22347       -4.00247        0.17222
C         -1.19634       -3.37392        1.44376
C         -0.79357       -2.05087        1.51322
C         -0.51114       -1.33676        0.37831
C         -0.65065       -1.90894       -0.85780
C         -1.03610       -3.22931       -1.00134
O         -1.39550       -5.40905        0.07750
C         -1.56126       -4.11258        2.74080
H         -0.68491       -1.56035        2.46398
H         -0.43353       -1.30235       -1.71852
C         -1.19919       -3.80592       -2.41579
C          4.43989        0.67776       -0.69030
C          3.78487       -0.57947       -0.72367
C          2.45196       -0.63086       -0.35548
C          1.79514        0.48380        0.09525
C          2.44938        1.68043        0.22424
C          3.78604        1.80157       -0.12150
O          5.73266        0.81922       -1.26116
C          4.47363       -1.86990       -1.19443
H          1.89843       -1.54963       -0.43590
H          1.89289        2.52687        0.58864
C          4.49182        3.15056        0.08761
C         -2.15084       -3.13176        3.78031
C         -2.63195       -5.18846        2.48369
C         -0.29729       -4.75386        3.33296
C         -2.26429       -4.91677       -2.44493
C         -1.66634       -2.70857       -3.39982
C          0.15340       -4.35282       -2.89752
C         -0.17769       -6.14282        0.11443
H         -2.51993       -3.66983        4.65314
H         -1.40570       -2.42140        4.13517
H         -2.98420       -2.57232        3.35654
H         -2.26198       -5.96577        1.81975
H         -2.93751       -5.66748        3.41356
H         -3.51533       -4.74788        2.02264
H          0.45669       -3.99573        3.54369
H         -0.52265       -5.27404        4.26359
H          0.13982       -5.47258        2.64390
H         -1.96886       -5.76648       -1.83473
H         -3.21511       -4.54628       -2.06328
H         -2.42422       -5.27988       -3.45984
H         -2.55641       -2.20447       -3.02429
H         -0.89385       -1.95956       -3.56685
H         -1.90944       -3.13793       -4.37139
H          0.51721       -5.13976       -2.24103
H          0.07290       -4.76319       -3.90372
H          0.90366       -3.56263       -2.91450
H          0.67085       -5.46710        0.22956
H         -0.19926       -6.84462        0.94803
H         -0.06506       -6.71276       -0.80765
C          5.72017        1.16846       -2.63974
C          4.27986       -2.02233       -2.71085
C          5.97292       -1.85779       -0.84669
C          3.85804       -3.10429       -0.49471
C          5.98862        2.95461        0.39012
C          4.31358        4.01657       -1.16871
C          3.88490        3.90174        1.29460
H          4.72463       -1.19020       -3.25106
H          4.73774       -2.94248       -3.07289
H          3.21981       -2.05038       -2.96210
H          6.11721       -1.71112        0.22319
H          6.44797       -2.79740       -1.12763
H          6.49452       -1.05761       -1.36569
H          2.83448       -3.28541       -0.81972
H          4.42878       -4.00377       -0.72451
H          3.85688       -2.97626        0.58743
H          6.47357        3.90719        0.60201
H          6.12346        2.30547        1.25463
H          6.50799        2.50183       -0.45067
H          4.74917        3.53823       -2.04254
H          3.25649        4.18240       -1.37519
H          4.79027        4.98851       -1.04420
H          4.46456        4.79528        1.52529
H          3.87847        3.26875        2.18160
H          2.86436        4.22592        1.09669
H          4.69428        1.26504       -2.99767
H          6.24602        2.11225       -2.78297
H          6.23604        0.40107       -3.21659
