115
-277.92969048
P         -1.78302        0.90258        0.09908
P          1.81723        0.02308        0.05550
C         -2.82484        2.37295        0.01054
C         -3.94003        2.40119        0.82326
H         -4.28768        1.49037        1.28652
C         -4.50979        3.61514        1.15652
H         -5.30039        3.66400        1.88742
C         -3.96465        4.79782        0.67884
C         -2.93156        4.74519       -0.24200
H         -2.50798        5.67292       -0.59447
C         -2.36050        3.53396       -0.57434
H         -1.50180        3.50744       -1.22327
C         -2.69143       -0.48463       -0.59804
C         -2.72963       -0.64241       -1.96358
H         -2.29813        0.11204       -2.60021
C         -3.28043       -1.78082       -2.51107
H         -3.26549       -1.95173       -3.57611
C         -3.80136       -2.76183       -1.69011
C         -3.80600       -2.57117       -0.31989
H         -4.19246       -3.35428        0.31309
C         -3.25513       -1.43132        0.22624
H         -3.23164       -1.29901        1.29557
C         -1.42947        0.62404        1.87092
C         -0.91747       -0.62969        2.13231
H         -0.69168       -1.28878        1.31525
C         -0.53586       -1.00760        3.41719
C         -0.89803       -0.17471        4.47049
H         -0.65747       -0.46370        5.47989
C         -1.40227        1.08607        4.22042
H         -1.55127        1.76991        5.03896
C         -1.54980        1.55467        2.91505
C          1.73520        0.67292        1.76113
C          1.26601        1.97464        1.78440
H          0.96309        2.44367        0.86205
C          1.01153        2.63514        2.98777
C          1.48973        2.04743        4.15521
H          1.34868        2.55197        5.09652
C          1.98148        0.75718        4.13927
H          2.22399        0.27290        5.06996
C          1.99563        0.00456        2.96526
C         -1.47980        3.05160        2.70167
H         -2.28141        3.54077        3.26573
H         -1.69101        3.26745        1.65645
C         -0.08786        3.66733        3.05838
H          0.14116        4.51455        2.40266
H         -0.11316        4.08713        4.06963
C          0.55238       -2.03286        3.59521
H          0.27558       -2.95358        3.07001
H          0.60280       -2.31426        4.65246
C          1.94497       -1.50015        3.10400
H          2.74414       -1.83469        3.77431
H          2.18569       -1.94261        2.14163
C          1.54129       -1.75032       -0.14618
C          0.29642       -2.26430       -0.43842
C          2.58969       -2.59531        0.14657
C          0.06032       -3.61599       -0.28557
C          2.35114       -3.94296        0.31825
C          1.07041       -4.45085        0.16716
C          3.41371        0.43290       -0.67152
C          3.92523       -0.30544       -1.71535
C          4.09111        1.53498       -0.20253
C          5.12108        0.06543       -2.29664
H          3.37296       -1.14963       -2.09602
C          5.28728        1.90180       -0.78184
H          3.67713        2.11320        0.60738
C          5.80842        1.16942       -1.83156
H          5.52750       -0.48035       -3.13358
H          5.82332        2.77296       -0.44042
Pd         0.14517        1.07159       -1.24292
Cl        -1.25095        1.94526       -2.77199
Cl         1.89718        1.54338       -2.57807
H          3.13147       -4.59176        0.68169
H          3.57042       -2.18800        0.33920
H         -0.92831       -4.03298       -0.42142
H         -0.50795       -1.60497       -0.71503
C         -5.68668        6.26433        1.82701
C         -4.19869        6.10134        1.40138
C         -3.21373        6.10640        2.61434
F         -5.85831        7.48367        2.36060
F         -6.44022        6.13182        0.72521
F         -6.01309        5.31511        2.71480
F         -3.88179        7.12970        0.61070
F         -3.50630        5.08182        3.42434
F         -1.97493        5.93423        2.13078
F         -3.30574        7.27344        3.26568
C         -2.91566       -5.02874       -2.02905
C         -4.14179       -4.10381       -2.28206
C         -5.46087       -4.66541       -1.67650
F         -3.13412       -6.23123       -2.58124
F         -1.84928       -4.43813       -2.58833
F         -2.71493       -5.13316       -0.70824
F         -4.31113       -3.99760       -3.60277
F         -6.41558       -3.74088       -1.85973
F         -5.78832       -5.80050       -2.31347
F         -5.29703       -4.89322       -0.36588
C          6.72796        2.83703       -3.42835
C          7.06816        1.61378       -2.52922
C          8.17992        1.93167       -1.48582
F          5.79966        2.43952       -4.31233
F          6.23238        3.82258       -2.66566
F          7.83494        3.24320       -4.06776
F          7.52281        0.63890       -3.32132
F          8.30129        0.86145       -0.68627
F          9.33503        2.16258       -2.12837
F          7.82401        3.00080       -0.76024
C          1.85423       -6.78437        0.78902
C          0.68842       -5.75313        0.82778
C          0.26689       -5.37925        2.28369
F          2.86583       -6.35604        1.55659
F          1.40438       -7.97058        1.22749
F          2.26597       -6.88740       -0.48342
F         -0.36388       -6.30077        0.21552
F          1.27313       -4.72197        2.87556
F         -0.78945       -4.55826        2.20051
F         -0.04940       -6.48800        2.96619
