45
-71.81758574
C          2.09391        1.24186        2.36348
P          1.51836        0.80902        0.68669
P         -1.10474        0.01768       -0.92565
C         -0.58458       -0.62249       -2.55382
Cl         1.48623       -1.90775        2.27624
H          1.24039        1.43097        3.00820
H         -1.15984       -0.14325       -3.34081
Cl        -1.50004       -2.60270        0.76345
C          0.48530        2.10084       -0.03217
C         -0.63674        1.75122       -0.75081
C         -1.41942        2.72515       -1.33602
C         -1.07334        4.05812       -1.20038
C          0.05391        4.40902       -0.48312
C          0.83721        3.42845        0.10021
H         -2.29763        2.43569       -1.89083
H         -1.68346        4.82127       -1.65481
H          0.32575        5.44660       -0.37951
H          1.72317        3.69130        0.65498
Pd         0.09737       -1.03009        0.75461
H         -0.74134       -1.69645       -2.59997
H          2.71865        2.12972        2.33254
H          0.46920       -0.41242       -2.71314
C         -5.55904       -0.41068       -0.10285
C         -4.76464        0.36154        0.72123
C         -3.41303        0.48772        0.45347
C         -2.86802       -0.15335       -0.63579
C         -3.65467       -0.92918       -1.45642
C         -5.00615       -1.05724       -1.19062
H         -6.61155       -0.51243        0.10571
H         -5.19430        0.86223        1.57324
H         -2.77712        1.08248        1.09068
H         -3.21074       -1.43858       -2.29612
H         -5.62527       -1.66522       -1.82967
C          4.95876        0.01247       -2.18168
C          3.95860       -0.92793       -2.03374
C          2.91715       -0.69432       -1.15418
C          2.88456        0.47391       -0.42682
C          3.87594        1.41717       -0.57543
C          4.91936        1.18548       -1.45422
H          5.77117       -0.16917       -2.86626
H          3.98901       -1.84352       -2.60130
H          2.13520       -1.42510       -1.02927
H          3.82792        2.33305       -0.00815
H          5.69831        1.92087       -1.57154
H          2.67153        0.41930        2.77533
