75
-122.81811392
P          1.83674       -0.58095        0.02446
C          3.16209       -1.29432       -0.96274
C          4.42597       -1.34051       -0.41940
C          5.46498       -1.90301       -1.13887
C          5.22778       -2.42389       -2.39523
C          3.95543       -2.38860       -2.93012
C          2.91901       -1.82595       -2.20828
H          1.92184       -1.79542       -2.61611
H          3.76925       -2.79726       -3.90973
H          6.03623       -2.86141       -2.95796
H          6.45619       -1.93654       -0.71741
H          4.59178       -0.94564        0.57094
C          1.71493       -1.57869        1.51503
C          1.57931       -0.98902        2.75076
C          1.57514       -1.77082        3.89083
C          1.70373       -3.14143        3.78468
C          1.83217       -3.73085        2.54261
C          1.83993       -2.94475        1.40424
H          1.95731       -3.38853        0.42809
H          1.92884       -4.80079        2.45906
H          1.69602       -3.75279        4.67223
H          1.46469       -1.31075        4.85896
H          1.46502        0.08002        2.81707
C          2.21167        1.12917        0.44468
C          3.37152        1.77549        0.08634
C          3.54458        3.12347        0.36837
C          2.50717        3.81601        0.99174
C          1.33335        3.18487        1.33890
C          1.18231        1.81491        1.07145
O         -0.00673        1.13717        1.38643
C         -1.19559        1.81651        1.07446
C         -1.34753        3.18481        1.35013
C         -2.52574        3.81553        1.01699
C         -3.56127        3.12778        0.38486
C         -3.39023        1.78037        0.10014
C         -2.22568        1.13502        0.44446
P         -1.84661       -0.56565       -0.00712
C         -1.68828       -1.59041        1.45940
C         -1.74671       -1.03286        2.71592
C         -1.71136       -1.84796        3.83209
C         -1.61840       -3.21731        3.68037
C         -1.55669       -3.77230        2.41740
C         -1.59432       -2.95416        1.30244
H         -1.56424       -3.37239        0.30846
H         -1.48037       -4.84062        2.29917
H         -1.58673       -3.85371        4.54959
H         -1.75219       -1.41398        4.81754
H         -1.81434        0.03777        2.81762
C         -3.18194       -1.27515       -0.98366
C         -4.43107       -1.35868       -0.41144
C         -5.47848       -1.91622       -1.12259
C         -5.26425       -2.39394       -2.40009
C         -4.00651       -2.32011       -2.96483
C         -2.96167       -1.76252       -2.25127
H         -1.97614       -1.69933       -2.68294
H         -3.83845       -2.69428       -3.96135
H         -6.07933       -2.82746       -2.95632
H         -6.45826       -1.97927       -0.67841
H         -4.57863       -0.99529        0.59373
Pd         0.01333       -0.05974       -1.38612
Cl        -1.56510        0.95247       -2.65785
Cl         1.53430        0.90118       -2.75282
H         -4.16387        1.24201       -0.41817
C         -4.82972        3.81609        0.02516
H         -4.70876        4.90002        0.03365
H         -5.62244        3.56037        0.72937
H         -5.15949        3.52741       -0.97375
H         -2.63801        4.86219        1.23823
S         -0.00421        4.06127        2.10776
H          2.61517        4.86686        1.19466
C          4.78635        3.82844       -0.04667
H          4.13911        1.23781       -0.44131
H          4.99451        4.67739        0.60579
H          5.64827        3.16102       -0.00803
H          4.69504        4.20179       -1.06741
