111
-148.55364949
P         -2.48801        2.34104        0.39017
P         -0.03219        0.33309        0.50795
C         -1.79880        1.85820        1.99184
C         -0.76494        0.94909        2.03842
C         -2.69208        4.17271        0.25351
C         -1.96422        4.68888       -0.96864
C         -2.32246        2.36865        3.16226
H         -3.11714        3.09538        3.11704
C         -1.82266        1.94660        4.38208
H         -2.23206        2.34299        5.29689
C         -0.80665        1.01150        4.42779
H         -0.42343        0.67526        5.37715
C         -0.27758        0.50992        3.25212
H          0.51251       -0.22467        3.27161
Pd        -1.29644        1.22273       -1.23651
Cl        -2.77789        1.88541       -2.78211
Cl        -0.09399       -0.07902       -2.62251
C         -4.22329        4.35506        0.19392
C         -4.24266        1.79379        0.14674
H         -2.36252        4.22802       -1.87466
H         -2.07198        5.77126       -1.07311
H         -0.89713        4.45710       -0.92379
H         -4.46458        5.22563       -0.43324
H         -4.61119        4.59527        1.19472
H         -4.22488        1.02890       -0.64178
C         -4.93641        3.08146       -0.34168
C         -4.83663        1.22676        1.41903
H         -2.27207        4.61172        1.16871
H         -5.99293        3.06967       -0.03635
H         -4.94461        3.10544       -1.44139
H         -5.84493        0.83995        1.25338
H         -4.22318        0.41658        1.81924
H         -4.90540        1.99666        2.18888
C         -1.00571       -4.06061       -0.15556
C          0.34510       -3.66776        0.02686
C          0.61519       -2.32531        0.22851
C         -0.39666       -1.40698        0.31981
C         -1.70912       -1.79337        0.24616
C         -2.05008       -3.12030        0.04007
O         -1.30921       -5.38710       -0.56313
C          1.51630       -4.66079       -0.03665
H          1.62918       -1.97389        0.29976
H         -2.46759       -1.03424        0.33294
C         -3.53592       -3.50760       -0.01904
C          4.48983        0.93628        0.32133
C          3.77427        1.39924        1.45480
C          2.40239        1.21293        1.48674
C          1.73393        0.66101        0.42400
C          2.41177        0.32626       -0.71895
C          3.78300        0.48015       -0.81949
O          5.90950        0.89630        0.34240
C          4.46849        2.05507        2.65890
H          1.83660        1.49166        2.35668
H          1.84253       -0.06355       -1.54314
C          4.48005        0.11866       -2.14037
C          2.70430       -4.16295        0.81900
C          1.10593       -6.03558        0.52080
C          1.98982       -4.79579       -1.49194
C         -4.38498       -2.55641        0.85419
C         -4.02955       -3.40083       -1.47025
C         -3.76046       -4.93183        0.51991
C         -1.35671       -5.56683       -1.97314
H          3.16426       -3.27257        0.39255
H          2.38147       -3.93109        1.83362
H          3.48166       -4.92417        0.88124
H          0.73595       -5.94067        1.54114
H          0.31932       -6.48812       -0.07774
H          1.95115       -6.72335        0.52884
H          2.84356       -5.46910       -1.56430
H          1.20089       -5.18502       -2.13019
H          2.28816       -3.82670       -1.89062
H         -4.42477       -1.55493        0.42932
H         -5.41255       -2.91173        0.92814
H         -3.98012       -2.48901        1.86367
H         -5.08650       -3.65557       -1.54320
H         -3.89960       -2.38630       -1.84667
H         -3.47697       -4.06832       -2.12637
H         -3.25460       -5.67342       -0.09302
H         -3.37801       -5.02176        1.53608
H         -4.82069       -5.18326        0.53285
H         -2.34854       -5.91120       -2.26530
H         -1.13065       -4.62975       -2.48368
H         -0.63442       -6.32739       -2.26912
C          6.44750       -0.32823        0.82592
C          5.71211        2.84821        2.21786
C          3.52064        3.05653        3.35771
C          4.86425        0.96876        3.67049
C          5.72819        0.99091       -2.36615
C          4.86714       -1.36786       -2.11959
C          3.53635        0.36406       -3.34018
H          6.46700        2.19533        1.78687
H          5.44641        3.59234        1.46777
H          6.16725        3.36501        3.06240
H          3.11676        3.77204        2.64193
H          2.68828        2.55178        3.84596
H          4.05003        3.61669        4.12816
H          3.98576        0.42087        4.01074
H          5.55125        0.25064        3.22940
H          5.34876        1.40576        4.54327
H          5.46662        2.04822       -2.34107
H          6.47929        0.81541       -1.60014
H          6.18619        0.77742       -3.33162
H          3.98365       -1.99276       -1.99375
H          5.35557       -1.65746       -3.04963
H          5.54688       -1.58800       -1.30002
H          2.70144       -0.33493       -3.34723
H          4.06746        0.23594       -4.28300
H          3.13483        1.37672       -3.31707
H          7.07031       -0.78369        0.05621
H          7.07243       -0.13389        1.69742
H          5.64560       -1.01539        1.09906
