111
-148.55328775
P         -2.63022        2.08653        0.49943
P          0.05118        0.40822        0.58952
C         -1.87403        1.68136        2.09722
C         -0.69014        0.97700        2.12985
C         -3.36148        3.78722        0.51089
C         -2.74039        4.66011       -0.55727
C         -2.47736        2.06682        3.27730
H         -3.40469        2.61517        3.24703
C         -1.89181        1.74114        4.48867
H         -2.36292        2.04065        5.41061
C         -0.70637        1.03171        4.51779
H         -0.25222        0.77574        5.46087
C         -0.10444        0.64605        3.33349
H          0.81557        0.08301        3.33743
Pd        -1.05694        1.53268       -1.09934
Cl        -2.42089        2.27563       -2.71520
Cl         0.61105        0.95772       -2.49699
C         -4.86967        3.52408        0.31127
C         -4.12866        1.07988        0.09896
H         -1.65627        4.72501       -0.43761
H         -2.93852        4.25290       -1.54957
H         -3.14550        5.67452       -0.53222
H         -5.30771        4.33946       -0.28252
H         -5.38703        3.55575        1.28138
H         -3.85072        0.40588       -0.72308
C         -5.13598        2.15044       -0.36798
C         -4.58993        0.28973        1.30427
H         -3.16134        4.20755        1.50575
H         -6.16073        1.80726       -0.16297
H         -5.07325        2.26777       -1.46005
H         -3.80147       -0.37104        1.67041
H         -4.86214        0.95928        2.12213
H         -5.46569       -0.32122        1.07262
C         -1.26509       -3.84009       -0.39566
C         -0.32676       -3.17139       -1.22260
C          0.01357       -1.86859       -0.90232
C         -0.46080       -1.26994        0.23390
C         -1.28868       -1.94543        1.09101
C         -1.68911       -3.24334        0.81965
O         -1.80513       -5.09233       -0.79341
C          0.31233       -3.81646       -2.46222
H          0.63851       -1.28467       -1.55555
H         -1.61825       -1.44069        1.98152
C         -2.58806       -3.98279        1.82330
C          4.58878        0.63122        0.35336
C          3.96835       -0.47692        0.98546
C          2.58447       -0.51022        1.03839
C          1.83438        0.53765        0.57132
C          2.43325        1.66373        0.07143
C          3.81193        1.75634       -0.02412
O          5.97719        0.59545        0.05647
C          4.76435       -1.65317        1.57208
H          2.06880       -1.37248        1.42558
H          1.80198        2.46210       -0.27904
C          4.43480        3.04003       -0.59362
C          1.73892       -3.26209       -2.68531
C          0.44925       -5.34006       -2.29090
C         -0.53789       -3.49073       -3.69949
C         -4.05993       -3.81180        1.41819
C         -2.22580       -5.47793        1.88038
C         -2.40578       -3.41602        3.24955
C         -2.94763       -4.99278       -1.63450
H          2.24569       -3.80646       -3.48175
H          1.72491       -2.21258       -2.97508
H          2.33748       -3.35906       -1.78020
H          1.02226       -5.57455       -1.39438
H         -0.52144       -5.82000       -2.19938
H          0.95819       -5.78623       -3.14495
H         -0.60245       -2.41303       -3.84824
H         -0.10482       -3.93005       -4.59769
H         -1.55145       -3.86986       -3.59397
H         -4.25018       -4.23262        0.43450
H         -4.72040       -4.30857        2.12846
H         -4.33165       -2.75761        1.38560
H         -2.82092       -5.99701        2.63128
H         -2.40438       -5.96479        0.92451
H         -1.17364       -5.60877        2.13105
H         -2.94589       -4.02081        3.97764
H         -1.35390       -3.41082        3.53425
H         -2.79003       -2.40008        3.33064
H         -3.76653       -5.56859       -1.20335
H         -3.25100       -3.95067       -1.74287
H         -2.72165       -5.40939       -2.61564
C          6.28136        0.01620       -1.20646
C          4.92864       -2.74081        0.49965
C          6.14336       -1.19541        2.08099
C          4.01949       -2.26161        2.78225
C          3.55781        4.26784       -0.25844
C          5.82456        3.30239        0.01408
C          4.53783        2.91493       -2.12150
H          3.95620       -3.10307        0.16745
H          5.45487       -2.35934       -0.37221
H          5.49014       -3.59028        0.88762
H          6.03606       -0.39267        2.80973
H          6.67795       -2.01692        2.55726
H          6.76459       -0.82671        1.26884
H          3.09603       -2.75471        2.48251
H          4.63542       -3.01134        3.27840
H          3.77544       -1.49150        3.51358
H          2.60699        4.24130       -0.78860
H          3.35434        4.31855        0.81087
H          4.05868        5.19134       -0.54806
H          6.52782        2.51625       -0.24887
H          6.23677        4.24568       -0.34338
H          5.76558        3.34793        1.10100
H          4.95860        3.81912       -2.56049
H          3.55403        2.75137       -2.56095
H          5.16964        2.07722       -2.40658
H          6.91666       -0.85810       -1.06594
H          5.36520       -0.27881       -1.71980
H          6.82438        0.73684       -1.81776
