87
-129.18766877
P         -1.59796       -0.47216       -0.12783
P          1.59657        0.46680        0.08706
C         -1.37754        0.83120       -1.35384
C          1.48885       -0.61410       -1.35254
C         -0.36038        0.77477       -2.30176
C         -0.20247        1.85348       -3.19406
C         -1.06857        2.93061       -3.11444
C         -2.07296        2.96654       -2.17162
C         -2.22119        1.91364       -1.29080
C          2.33370       -1.69649       -1.39874
C          2.26856       -2.58863       -2.45054
C          1.34521       -2.39270       -3.45458
C          0.47925       -1.31284       -3.42729
C          0.55400       -0.39629       -2.36004
Cl         1.15088        0.83185        3.21793
Cl        -1.40299       -1.22788        3.03825
H         -2.73574        3.81460       -2.11744
H         -3.00203        1.93726       -0.54908
H          3.04960       -1.84674       -0.60788
H          2.93199       -3.43733       -2.48197
H         -0.94383        3.75220       -3.79930
H          1.28448       -3.08972       -4.27316
C         -1.33732       -4.64617       -1.89873
C         -2.15049       -3.69848       -2.50429
C         -2.22186       -2.42848       -1.94183
C         -1.49465       -2.12494       -0.81452
C         -0.69929       -3.07314       -0.21458
C         -0.61625       -4.33931       -0.76171
H         -1.27667       -5.63237       -2.32663
C         -2.93779       -4.04505       -3.71886
H         -2.84086       -1.67062       -2.39339
H         -0.15228       -2.82182        0.67958
H          0.00932       -5.08542       -0.29986
C         -5.52874        0.11921        2.09805
C         -5.38545       -0.94178        1.22596
C         -4.19469       -1.12065        0.54756
C         -3.15758       -0.23942        0.74540
C         -3.29808        0.81782        1.61498
C         -4.48999        1.01720        2.30072
H         -6.45164        0.25465        2.63582
H         -6.19854       -1.63356        1.07837
H         -4.06619       -1.94977       -0.12865
H         -2.47154        1.49003        1.77679
C         -4.62240        2.13981        3.26850
C          5.33787       -0.53844        2.48398
C          5.27251        0.64566        1.77655
C          4.13710        0.95363        1.05123
C          3.07930        0.07504        1.03421
C          3.14167       -1.10463        1.73993
C          4.27072       -1.42594        2.48334
H          6.22199       -0.78152        3.04835
H          6.10448        1.33054        1.79121
H          4.06938        1.87797        0.50149
H          2.30349       -1.78166        1.72421
C          4.33755       -2.70934        3.23376
C          1.47726        4.87717       -0.99166
C          0.67255        4.39905        0.02360
C          0.71308        3.05976        0.36123
C          1.54923        2.21098       -0.32566
C          2.35963        2.68430       -1.33119
C          2.33274        4.02991       -1.68187
H          1.45028        5.92065       -1.25582
H          0.01553        5.06845        0.55421
H          0.10347        2.67422        1.16216
H          3.00962        2.00178       -1.85374
C          3.20994        4.55927       -2.76144
Pd        -0.07566       -0.13163        1.60246
C          0.87357        1.86262       -4.22381
C         -0.50939       -1.14790       -4.52899
H          0.46947        1.63365       -5.21054
H          1.35040        2.84189       -4.27865
H          1.65029        1.13131       -3.99784
H         -0.97210       -2.10259       -4.78169
H         -1.30797       -0.45950       -4.25051
H         -0.02842       -0.76271       -5.42879
H         -3.39923       -3.16015       -4.15956
H         -2.30159       -4.50210       -4.47829
H         -3.73335       -4.75098       -3.47628
H         -5.66676        2.42400        3.40486
H         -4.21906        1.85853        4.24226
H         -4.08091        3.02141        2.92224
H          4.65796       -3.52336        2.58201
H          5.04130       -2.64509        4.06478
H          3.36207       -2.97146        3.64619
H          3.98181        5.21044       -2.34879
H          3.70736        3.75225       -3.30132
H          2.63242        5.13734       -3.48439
