111
-148.55803816
P         -2.65921        1.76207        0.77737
P          0.21800        0.51351        0.43678
C         -1.64631        1.43621        2.24509
C         -0.36201        0.96077        2.08843
C         -3.68885        3.28528        0.98886
C         -3.07089        4.48650        0.30729
C         -2.14618        1.66800        3.51083
H         -3.15728        2.02118        3.62911
C         -1.35202        1.43068        4.61935
H         -1.74144        1.61134        5.60797
C         -0.06224        0.96197        4.46026
H          0.55580        0.77547        5.32309
C          0.43177        0.72126        3.19124
H          1.43025        0.33936        3.05409
Pd        -1.20764        1.64627       -1.01548
Cl        -2.81969        2.54776       -2.28428
Cl         0.29888        1.31682       -2.64589
C         -5.05118        2.84491        0.42324
C         -3.98454        0.51021        0.44890
H         -3.68503        5.38017        0.43986
H         -2.07439        4.69735        0.70247
H         -2.96787        4.31617       -0.76477
H         -5.07899        3.07889       -0.65007
H         -5.86390        3.43313        0.87627
H         -3.86166        0.20872       -0.60011
C         -5.28406        1.32007        0.62766
C         -3.86216       -0.68466        1.36957
H         -3.76873        3.45949        2.06925
H         -5.67289        1.14383        1.63996
H         -6.06306        0.94816       -0.05495
H         -2.90914       -1.19703        1.22871
H         -3.91559       -0.37537        2.41500
H         -4.66207       -1.40781        1.19456
C         -1.43293       -3.65246       -0.37445
C         -1.14439       -2.78615       -1.46189
C         -0.62686       -1.53536       -1.17862
C         -0.34742       -1.15494        0.10683
C         -0.49992       -2.03480        1.14565
C         -0.99429       -3.31085        0.93312
O         -2.23166       -4.80693       -0.57802
C         -1.38848       -3.14092       -2.93744
H         -0.44955       -0.82561       -1.96779
H         -0.24769       -1.70697        2.13971
C         -1.02774       -4.27361        2.13104
C          4.74966        0.56868       -0.02538
C          4.12475       -0.42505        0.77426
C          2.74275       -0.41628        0.86606
C          1.99911        0.57845        0.28585
C          2.60703        1.61068       -0.37856
C          3.98390        1.65540       -0.52534
O          6.11388        0.43170       -0.38937
C          4.88725       -1.50241        1.56460
H          2.22739       -1.20641        1.38611
H          1.98589        2.37471       -0.81399
C          4.59041        2.87707       -1.23601
C         -1.62602       -4.64622       -3.14641
C         -2.60244       -2.35022       -3.45440
C         -0.14518       -2.75812       -3.77074
C         -1.25914       -5.73282        1.70228
C          0.33399       -4.22657        2.85971
C         -2.13605       -3.84050        3.10524
C         -3.61660       -4.54942       -0.41471
H         -2.54710       -4.96985       -2.66754
H         -1.70289       -4.88850       -4.20610
H         -0.80733       -5.22681       -2.72273
H         -2.78689       -2.56362       -4.50684
H         -3.50277       -2.60316       -2.89772
H         -2.44055       -1.27738       -3.35332
H          0.74759       -3.23904       -3.37217
H         -0.26152       -3.07116       -4.80795
H          0.02478       -1.68282       -3.77498
H         -0.52173       -6.03656        0.96009
H         -1.18404       -6.40912        2.55347
H         -2.24580       -5.86361        1.26426
H          1.14665       -4.45530        2.17067
H          0.52739       -3.24714        3.29415
H          0.36609       -4.95360        3.67077
H         -3.11380       -3.87157        2.62827
H         -2.16651       -4.49518        3.97577
H         -1.97046       -2.82259        3.45712
H         -3.93479       -3.76623       -1.10104
H         -4.17855       -5.46051       -0.62107
H         -3.81961       -4.22507        0.60451
C          6.29362       -0.33324       -1.56985
C          4.32916       -1.57106        3.00392
C          4.69433       -2.86912        0.88674
C          6.38948       -1.19103        1.68030
C          3.94758        4.16820       -0.68274
C          6.10685        2.99730       -1.00524
C          4.30411        2.78037       -2.74395
H          4.38026       -0.59363        3.48288
H          3.29174       -1.90101        3.02131
H          4.90221       -2.27250        3.60978
H          5.20414       -3.65496        1.44352
H          3.63797       -3.13016        0.82952
H          5.09044       -2.86562       -0.12683
H          6.89155       -1.91133        2.32579
H          6.87592       -1.22583        0.70849
H          6.54454       -0.19588        2.09568
H          4.41793        5.05145       -1.11417
H          2.88510        4.22313       -0.91345
H          4.06191        4.22134        0.39956
H          6.33474        2.99514        0.06007
H          6.64256        2.16887       -1.46244
H          6.49788        3.91907       -1.43536
H          4.69832        3.64801       -3.27221
H          3.23239        2.72935       -2.93388
H          4.75856        1.89034       -3.17453
H          5.86960       -1.32749       -1.44001
H          5.79735        0.15170       -2.40871
H          7.35919       -0.42037       -1.78312
