105
-153.06207616
Cl         0.36077        3.63961        1.67036
Pd        -0.17031        1.93885        0.29233
P         -0.68883        0.24571       -1.29373
N          0.17164       -1.15768       -1.95610
C          0.25900       -2.49174       -1.57016
C         -0.08317       -2.98977       -0.28276
C          0.22840       -4.32876        0.04252
C          0.08281       -4.80222        1.47081
C         -0.06998       -6.32461        1.59451
C          1.05194       -7.03490        0.83140
C          1.03774       -6.64813       -0.65716
C          0.74916       -5.18958       -0.92698
C          1.00559       -4.69751       -2.19935
C          0.78704       -3.38009       -2.50648
H          1.03177       -3.01107       -3.48754
H          1.40438       -5.36414       -2.94537
H          1.99731       -6.90755       -1.12241
H          2.01877       -6.75862        1.27080
H         -0.08854       -6.63555        2.64869
H          0.96857       -4.47595        2.02907
C         -0.68135       -2.13285        0.77621
C          0.13221       -1.14707        1.39391
C         -0.34122       -0.48064        2.52503
C         -1.59458       -0.74572        3.01209
C         -2.42959       -1.67388        2.39691
C         -3.79339       -1.90852        3.00368
C         -4.72246       -2.82396        2.18633
C         -3.94208       -3.95710        1.51267
C         -2.86126       -3.38138        0.58786
C         -1.97418       -2.37358        1.27565
H         -2.25559       -4.18743        0.15790
H         -4.61697       -4.62692        0.96114
H         -5.23176       -2.23265        1.41602
H         -4.27312       -0.93487        3.16604
H         -1.95333       -0.21946        3.88038
H          0.27746        0.26463        2.99023
N          1.29359       -0.76031        0.72967
P          1.79650        0.86913        0.98356
C          2.89248        1.40723       -0.32055
C          3.08926        2.75450       -0.50869
C          3.85338        3.19215       -1.57494
C          4.41014        2.28193       -2.46396
C          4.20299        0.92507       -2.25138
C          3.43919        0.48860       -1.18403
H          3.25698       -0.56249       -1.02875
H          4.63689        0.21259       -2.93196
C          5.23840        2.75107       -3.60899
H          4.00996        4.24581       -1.73050
H          2.60853        3.45335        0.15820
C          2.59234        0.95271        2.58736
C          2.43014        2.03396        3.41903
C          3.05661        2.05682        4.65013
C          3.84592        0.99050        5.05990
C          4.00406       -0.09105        4.20339
C          3.37481       -0.11020        2.97087
H          3.48081       -0.95294        2.30548
H          4.62206       -0.91857        4.50726
C          4.54226        1.02377        6.37589
H          2.93570        2.90508        5.30205
H          1.80619        2.85159        3.10110
H          1.15201       -0.85447       -0.27510
H          0.40361       -0.94064       -2.91749
C         -0.57680        1.42720       -2.64734
C          0.67189        1.89363       -2.97861
C          0.81707        2.80744       -4.00599
C         -0.29189        3.26268       -4.70564
C         -1.54437        2.76968       -4.36429
C         -1.68574        1.85587       -3.33641
H         -2.65892        1.48380       -3.06222
H         -2.40989        3.10978       -4.90681
C         -0.13755        4.23270       -5.82478
H          1.79485        3.17553       -4.26557
H          1.52949        1.55059       -2.42439
C         -2.41910       -0.19804       -1.14461
C         -2.93534       -1.05131       -2.09056
C         -4.27803       -1.38501       -2.05900
C         -5.10895       -0.86983       -1.07398
C         -4.56943       -0.00550       -0.13036
C         -3.22889        0.32971       -0.16719
H         -2.81512        1.00871        0.55985
H         -5.20634        0.40840        0.63251
C         -6.55279       -1.23310       -1.04582
H         -4.68781       -2.05239       -2.79774
H         -2.28244       -1.45410       -2.84890
Cl        -1.90515        3.17421       -0.43631
H          0.28740       -7.24938       -1.18452
H         -1.04002       -6.62642        1.17981
H          0.97502       -8.12462        0.95315
H         -0.75981       -4.29896        1.95671
H         -3.46850       -4.58046        2.28142
H         -3.33672       -2.89506       -0.26965
H         -3.65232       -2.33286        4.00501
H         -5.52470       -3.22931        2.81889
H          4.92357        3.74063       -3.94338
H          6.29069        2.80951       -3.32770
H          5.15385        2.07299       -4.45940
H          4.66437        0.01875        6.78222
H          5.53273        1.47032        6.27862
H          3.97937        1.60867        7.10466
H          0.73637        4.86868       -5.67689
H         -0.01793        3.71163       -6.77562
H         -1.00967        4.88318       -5.90409
H         -6.68211       -2.31601       -1.07662
H         -7.03851       -0.86608       -0.14066
H         -7.07633       -0.80649       -1.90247
