105
-153.06738115
Cl         0.17243        2.74832        2.76659
Pd        -0.21812        1.73223        0.79337
P         -0.70794        0.53466       -1.18742
N          0.39258       -0.77011       -1.62057
C          0.54328       -2.14209       -1.38192
C          0.01561       -2.83104       -0.25807
C          0.37749       -4.17635       -0.03305
C         -0.03165       -4.84483        1.25885
C          0.84859       -6.04819        1.62520
C          0.96593       -7.00254        0.43309
C          1.59117       -6.29605       -0.78167
C          1.17498       -4.85441       -0.95816
C          1.65256       -4.16973       -2.06820
C          1.36252       -2.84486       -2.26413
H          1.76886       -2.32211       -3.11283
H          2.28248       -4.69071       -2.76947
H          2.68436       -6.32923       -0.70022
H          1.54359       -7.89685        0.70624
H          1.84797       -5.69418        1.90769
H         -0.01407       -4.10414        2.06827
C         -0.73038       -2.10561        0.79737
C         -0.00477       -1.21606        1.62613
C         -0.66755       -0.57959        2.67475
C         -1.99610       -0.82178        2.91186
C         -2.72168       -1.71064        2.12562
C         -4.16666       -1.96587        2.49238
C         -4.92644       -2.93798        1.56802
C         -3.99581       -4.00011        0.97191
C         -2.85965       -3.31877        0.19896
C         -2.08738       -2.35638        1.06156
H         -2.18961       -4.05728       -0.25486
H         -4.54892       -4.70029        0.33008
H         -5.39257       -2.37504        0.75062
H         -4.68819       -1.00131        2.53375
H         -2.49377       -0.32176        3.72541
H         -0.12046        0.11627        3.28557
N          1.34833       -0.97610        1.36566
P          1.85731        0.69035        1.09847
C          2.67376        0.87123       -0.48397
C          2.35614        1.94698       -1.27919
C          2.84380        2.01151       -2.57064
C          3.64485        0.99706       -3.07478
C          3.98595       -0.06108       -2.24348
C          3.50112       -0.12419       -0.94937
H          3.73881       -0.96212       -0.31346
H          4.62308       -0.84303       -2.62019
C          4.15879        1.06428       -4.47050
H          2.58418        2.84264       -3.20398
H          1.70599        2.72040       -0.90173
C          2.82405        1.36766        2.43762
C          2.89186        0.67187        3.61987
C          3.61051        1.19190        4.68167
C          4.26628        2.41005        4.55929
C          4.17458        3.10149        3.35818
C          3.45546        2.57981        2.29777
H          3.37680        3.11517        1.36481
H          4.66504        4.05489        3.26043
C          5.01497        2.98723        5.70988
H          3.66188        0.65582        5.61385
H          2.37988       -0.27354        3.70384
H          1.75267       -1.51316        0.61166
H          1.21455       -0.27986       -1.95410
C         -0.56068        1.70559       -2.54681
C         -0.84750        3.04205       -2.40586
C         -0.68403        3.90279       -3.47368
C         -0.23202        3.43120       -4.69834
C          0.02710        2.07456       -4.83446
C         -0.13601        1.21737       -3.76082
H          0.07732        0.16553       -3.86311
H          0.36252        1.69387       -5.78401
C         -0.07010        4.35452       -5.85519
H         -0.90921        4.94974       -3.36247
H         -1.20995        3.40648       -1.46082
C         -2.39025       -0.07124       -1.26860
C         -3.39080        0.38937       -0.44678
C         -4.68733       -0.05546       -0.62259
C         -4.99582       -0.95244       -1.63698
C         -3.97845       -1.38650       -2.47548
C         -2.67833       -0.94947       -2.28697
H         -1.88217       -1.28659       -2.93235
H         -4.20902       -2.07270       -3.27235
C         -6.39224       -1.42607       -1.84461
H         -5.47193        0.30566        0.02003
H         -3.16259        1.12615        0.30358
Cl        -2.02170        3.03125        0.47839
H          1.35165       -6.84334       -1.70230
H          0.45712       -6.56956        2.51020
H         -0.03342       -7.36968        0.16701
H         -1.07382       -5.17226        1.18157
H         -3.57173       -4.60733        1.78119
H         -3.28088       -2.76475       -0.64380
H         -4.18981       -2.35031        3.51926
H         -5.76075       -3.41180        2.10386
H          4.31291        0.06566       -4.88171
H          3.45620        1.58514       -5.12278
H          5.11081        1.59539       -4.50794
H          4.36480        3.61943        6.31607
H          5.41619        2.20244        6.35265
H          5.85344        3.59588        5.36845
H         -0.99516        4.42200       -6.42927
H          0.19415        5.35937       -5.52274
H          0.71848        4.01040       -6.52594
H         -6.81565       -0.99656       -2.75353
H         -6.42503       -2.51260       -1.93810
H         -7.03640       -1.14497       -1.01035
