171
-217.84696319
P         -1.60455        0.44585       -0.27983
P          1.59056       -0.37075       -0.38140
C         -0.89610        1.43916       -1.59940
C          0.83780       -1.28091       -1.72983
C         -0.12198        0.85871       -2.59858
C          0.50494        1.69694       -3.54059
C          0.30520        3.06556       -3.46956
C         -0.48704        3.61899       -2.48628
C         -1.07899        2.79964       -1.54560
C          1.03227       -2.63820       -1.79712
C          0.43729       -3.37324       -2.80390
C         -0.36239       -2.73913       -3.73157
C         -0.57135       -1.37071       -3.67920
C          0.05239       -0.61839       -2.66545
Cl         1.65967        0.48793        2.83317
Cl        -1.46494       -0.30670        2.94427
C         -1.42594       -0.71633       -4.70770
C          1.38619        1.14560       -4.60653
H         -0.63718        4.68543       -2.44518
H         -1.68505        3.22445       -0.76185
H          1.65383       -3.12286       -1.06126
H          0.59737       -4.43732       -2.86352
H          0.78521        3.70066       -4.19498
H         -0.83469       -3.30964       -4.51344
C         -3.77185       -3.31990       -1.53128
C         -2.81417       -3.39820       -0.52749
C         -2.13229       -2.23567       -0.19366
C         -2.41655       -1.05283       -0.82952
C         -3.37439       -0.98885       -1.81158
C         -4.07588       -2.13036       -2.18208
H         -4.31144       -4.20511       -1.81014
H         -1.38224       -2.24430        0.57789
H         -3.57676       -0.03749       -2.27350
C         -4.49954        2.80621        2.29405
C         -4.99241        1.80003        1.47348
C         -4.08420        1.10584        0.68526
C         -2.74756        1.41805        0.71581
C         -2.27868        2.41985        1.52974
C         -3.15050        3.13438        2.34185
H         -5.18471        3.33854        2.92791
H         -4.41190        0.30081        0.05251
H         -1.22166        2.62205        1.54555
C          4.25133       -2.97296        2.21804
C          2.87817       -3.18651        2.24355
C          2.08559       -2.41390        1.40515
C          2.64554       -1.44663        0.60723
C          4.00278       -1.24075        0.60563
C          4.83741       -2.01092        1.40504
H          4.88690       -3.55762        2.85609
H          1.01712       -2.54744        1.39771
H          4.40545       -0.45851       -0.01209
C          3.99135        3.20670       -1.74893
C          2.99677        3.39234       -0.79714
C          2.26974        2.27983       -0.39345
C          2.51917        1.04998       -0.94884
C          3.49119        0.88582       -1.90507
C          4.25644        1.96913       -2.32177
H          4.59128        4.04949       -2.03868
H          1.50781        2.36044        0.36217
H          3.65125       -0.09751       -2.31372
Pd         0.04994        0.09226        1.32038
C         -1.14847       -5.25076       -0.37277
C         -2.47671       -4.71582        0.18485
C         -3.57328       -5.77636       -0.03621
C         -2.34644       -4.47553        1.70284
H         -0.35258       -4.51865       -0.24463
H         -0.85175       -6.17045        0.13106
H         -1.23721       -5.46217       -1.43807
H         -3.35822       -6.67932        0.53515
H         -4.54611       -5.40304        0.28344
H         -3.64086       -6.06469       -1.08478
H         -2.16020       -5.41074        2.23056
H         -1.52468       -3.80071        1.93533
H         -3.26120       -4.03894        2.10296
C         -5.34754       -0.70704       -3.86690
C         -5.19849       -2.10221       -3.22933
C         -6.52974       -2.46924       -2.54769
C         -4.89253       -3.12102       -4.34337
H         -4.42623       -0.39826       -4.35906
H         -6.13831       -0.70729       -4.61696
H         -5.60592        0.04135       -3.11799
H         -6.49020       -3.46863       -2.11581
H         -6.75797       -1.76799       -1.74561
H         -7.35328       -2.44568       -3.26114
H         -4.85205       -4.13703       -3.95289
H         -5.65981       -3.09401       -5.11693
H         -3.93363       -2.90678       -4.81297
C         -6.89375        0.98998        2.88915
C         -6.49009        1.46331        1.48104
C         -6.82527        0.34494        0.47392
C         -7.29805        2.71771        1.10093
H         -7.94986        0.72307        2.92380
H         -6.31372        0.11457        3.18075
H         -6.72107        1.76762        3.63226
H         -7.89275        0.12512        0.48023
H         -6.55439        0.63790       -0.54028
H         -6.29846       -0.57680        0.72050
H         -8.36596        2.50125        1.07731
H         -7.13810        3.52453        1.81512
H         -7.00509        3.07965        0.11554
C         -3.40134        5.53621        3.03182
C         -2.65970        4.21642        3.31352
C         -1.14714        4.46850        3.16418
C         -2.93790        3.75714        4.75608
H         -3.04975        6.32910        3.69179
H         -3.23825        5.85657        2.00291
H         -4.47471        5.43004        3.18359
H         -0.57373        3.56895        3.38756
H         -0.90759        4.79186        2.15200
H         -0.81423        5.24874        3.84843
H         -2.58399        4.49445        5.47637
H         -4.00393        3.60889        4.92457
H         -2.43282        2.81338        4.96135
C          1.48455       -5.26645        2.35673
C          2.21129       -4.19622        3.18836
C          1.19708       -3.45467        4.08152
C          3.24016       -4.89582        4.09686
H          1.00617       -6.00494        2.99984
H          0.71389       -4.81708        1.73438
H          2.18260       -5.78750        1.70177
H          1.69154       -2.67113        4.65514
H          0.41270       -2.98513        3.48953
H          0.71980       -4.13872        4.78276
H          2.74737       -5.59820        4.76904
H          3.96589       -5.45730        3.50884
H          3.77623       -4.17236        4.71087
C          6.80135       -0.72016        0.42911
C          6.35782       -1.80031        1.43581
C          7.06475       -3.11968        1.07422
C          6.77702       -1.35410        2.84815
H          6.35291        0.24476        0.66515
H          7.88363       -0.59304        0.44899
H          6.51937       -0.99419       -0.58736
H          6.75700       -3.46247        0.08649
H          8.14712       -2.99216        1.06509
H          6.82904       -3.90613        1.79009
H          7.85112       -1.17663        2.89909
H          6.26794       -0.43136        3.12597
H          6.52751       -2.11000        3.59186
C          3.98917        5.19124        0.63168
C          2.75791        4.78369       -0.19619
C          1.51978        4.79621        0.72079
C          2.53062        5.80332       -1.32832
H          3.84857        6.17284        1.08386
H          4.16928        4.47286        1.43127
H          4.88408        5.23230        0.01154
H          1.65559        4.13193        1.57396
H          1.33661        5.79752        1.11027
H          0.62949        4.48305        0.17607
H          1.69005        5.50338       -1.95293
H          2.31459        6.79223       -0.92437
H          3.40763        5.89172       -1.96804
C          5.26360        2.85614       -4.45509
C          5.41076        1.82035       -3.32358
C          5.43559        0.41396       -3.95365
C          6.74175        2.05297       -2.58619
H          4.31353        2.73499       -4.97330
H          5.30869        3.87492       -4.07283
H          6.06156        2.74459       -5.18906
H          5.60651       -0.35305       -3.19863
H          4.49651        0.19541       -4.46146
H          6.23653        0.33346       -4.68845
H          6.78156        3.05212       -2.15341
H          6.86486        1.33405       -1.77692
H          7.58834        1.94662       -3.26424
H         -2.26208       -1.35745       -4.98674
H          2.31968        1.70565       -4.66079
H         -0.85390       -0.50486       -5.61198
H         -1.83849        0.22451       -4.34072
H          0.90283        1.20533       -5.58265
H          1.64118        0.10214       -4.41725
