111
-148.55156532
P         -1.77508        2.78487        0.29769
P         -0.47330       -0.09254        0.55404
C         -1.54069        2.04025        1.93671
C         -1.05469        0.75324        2.03883
C         -0.82082        4.35345        0.10980
C          0.01626        4.30151       -1.15071
C         -1.82297        2.76035        3.07996
H         -2.15531        3.78184        2.99687
C         -1.64910        2.17769        4.32332
H         -1.87413        2.73867        5.21570
C         -1.18211        0.88123        4.42208
H         -1.04241        0.42891        5.39012
C         -0.87247        0.17126        3.27607
H         -0.47293       -0.82822        3.33817
Pd        -1.30699        1.11674       -1.23319
Cl        -2.42282        2.33204       -2.75234
Cl        -0.69209       -0.58565       -2.56029
C         -1.92744        5.42775        0.08051
C         -3.49752        3.39911       -0.01790
H          0.72646        3.47110       -1.12530
H         -0.62056        4.15915       -2.02620
H          0.57913        5.22639       -1.29848
H         -1.59400        6.28184       -0.52712
H         -2.08693        5.82797        1.09267
H         -3.88687        2.79222       -0.84673
C         -3.26794        4.85818       -0.46468
C         -4.40177        3.25917        1.18842
H         -0.18576        4.45532        1.00012
H         -4.11452        5.47978       -0.13871
H         -3.26531        4.91496       -1.56316
H         -4.06620        3.90177        2.00280
H         -5.42913        3.54643        0.95279
H         -4.41494        2.23131        1.55793
C         -0.89201       -4.62397        0.48362
C          0.07651       -4.02040        1.32632
C          0.18229       -2.63892        1.31916
C         -0.68549       -1.86821        0.58957
C         -1.69830       -2.44238       -0.13260
C         -1.84916       -3.81817       -0.18393
O         -0.87570       -6.02850        0.27325
C          1.02653       -4.83788        2.21588
H          0.96526       -2.14428        1.86826
H         -2.35367       -1.79580       -0.69043
C         -3.00168       -4.41119       -1.00879
C          3.82624        1.16036       -0.26595
C          3.33313       -0.05239       -0.81232
C          2.02051       -0.40439       -0.54755
C          1.23911        0.35635        0.28041
C          1.73725        1.48221        0.88324
C          3.04378        1.88696        0.66850
O          5.08535        1.67005       -0.68079
C          4.17587       -0.96537       -1.71610
H          1.57709       -1.27002       -1.00837
H          1.08517        2.04808        1.52448
C          3.59421        3.09723        1.44046
C          1.39032       -4.04577        3.49242
C          0.36595       -6.14963        2.67784
C          2.31815       -5.13932        1.44124
C         -3.48299       -5.74694       -0.41408
C         -4.21742       -3.45668       -1.01400
C         -2.53236       -4.61266       -2.45784
C         -0.03969       -6.44137       -0.80080
H          1.96086       -4.66625        4.18316
H          2.00238       -3.17398        3.26644
H          0.49151       -3.70956        4.00873
H          0.15276       -6.80479        1.83706
H          1.01411       -6.69463        3.36365
H         -0.57433       -5.94614        3.18916
H          2.81844       -4.21501        1.15497
H          3.01024       -5.72291        2.04777
H          2.11241       -5.69957        0.53228
H         -2.70242       -6.50260       -0.45157
H         -3.77504       -5.61988        0.62779
H         -4.34164       -6.13333       -0.96264
H         -4.01010       -2.54241       -1.56802
H         -5.07750       -3.92869       -1.48838
H         -4.50234       -3.18621        0.00238
H         -2.21480       -3.66574       -2.89399
H         -1.68956       -5.29783       -2.50754
H         -3.33329       -5.01794       -3.07555
H         -0.63377       -6.97576       -1.54197
H          0.43320       -5.57690       -1.26872
H          0.72849       -7.11863       -0.42798
C          5.01716        2.52429       -1.81567
C          5.67050       -0.88482       -1.35659
C          3.75309       -2.44207       -1.54092
C          3.95837       -0.56200       -3.18234
C          2.87215        3.25248        2.79855
C          5.09269        2.91624        1.74377
C          3.37400        4.37895        0.62393
H          6.06876        0.11124       -1.53125
H          5.82553       -1.12640       -0.30559
H          6.25559       -1.58268       -1.95507
H          4.42526       -3.10457       -2.08573
H          3.78092       -2.72783       -0.49016
H          2.74872       -2.62469       -1.91977
H          4.53694       -1.19705       -3.85262
H          2.90689       -0.65305       -3.45403
H          4.25528        0.46983       -3.35520
H          1.82963        3.54034        2.67039
H          2.90399        2.32130        3.36363
H          3.34548        4.02665        3.40200
H          5.47318        3.74055        2.34643
H          5.26458        1.98915        2.28960
H          5.67963        2.87886        0.82914
H          3.86148        4.31935       -0.34583
H          3.77192        5.24784        1.14752
H          2.31232        4.54886        0.45334
H          5.57116        2.08176       -2.64319
H          3.97944        2.67734       -2.11495
H          5.47343        3.48466       -1.57583
