115
-277.93503397
P         -1.67883       -0.08918       -0.13389
P          1.87068       -0.76485        0.42266
C         -1.48283        1.67899       -0.46223
C         -2.59954        2.47718       -0.34531
H         -3.57142        2.02694       -0.21281
C         -2.45644        3.84755       -0.28778
H         -3.30373        4.47469       -0.06223
C         -1.19968        4.42378       -0.37881
C         -0.10527        3.62014       -0.65519
H          0.86539        4.08836       -0.74870
C         -0.24778        2.24767       -0.69428
H          0.61829        1.62475       -0.83876
C         -3.16513       -0.69502       -0.94910
C         -3.76956       -1.82319       -0.44595
H         -3.34962       -2.31608        0.41591
C         -4.91617       -2.30969       -1.03766
H         -5.41270       -3.18268       -0.64550
C         -5.45847       -1.67319       -2.13787
C         -4.84211       -0.54304       -2.63854
H         -5.28176       -0.05103       -3.49193
C         -3.69437       -0.05540       -2.04633
H         -3.20331        0.81687       -2.44686
C         -1.68559       -0.62172        1.61545
C         -1.07008       -1.84904        1.79327
H         -0.62115       -2.34247        0.94740
C         -0.86672       -2.38546        3.06526
C         -1.51863       -1.77550        4.13068
H         -1.41253       -2.18860        5.11988
C         -2.15515       -0.56250        3.96005
H         -2.54554       -0.04599        4.82043
C         -2.14726        0.09154        2.72848
C          1.39491       -0.28570        2.12511
C          0.73258        0.92495        2.13434
H          0.51775        1.40923        1.20044
C          0.17772        1.45159        3.29800
C          0.50159        0.83651        4.50088
H          0.11917        1.24271        5.42231
C          1.16607       -0.37352        4.50672
H          1.29693       -0.89801        5.43812
C          1.51733       -1.01364        3.31788
C         -2.31185        1.59388        2.73924
H         -3.15908        1.85748        3.38194
H         -2.61254        1.91721        1.74569
C         -1.01687        2.36262        3.19788
H         -0.78339        3.18687        2.51523
H         -1.17833        2.84501        4.16808
C          0.30666       -3.29661        3.32424
H          0.33890       -4.08424        2.56404
H          0.14239       -3.83175        4.26617
C          1.67136       -2.51683        3.37187
H          2.23650       -2.78913        4.27127
H          2.31642       -2.84579        2.56160
C          2.84194       -2.27171        0.51592
C          4.07578       -2.22486        1.13131
C          2.23838       -3.48045        0.24067
C          4.65105       -3.39626        1.58892
C          2.82031       -4.64809        0.68676
C          3.99105       -4.60516        1.42845
C          2.86823        0.53852       -0.32049
C          3.09091        0.54462       -1.67795
C          3.27707        1.60128        0.45309
C          3.66576        1.64389       -2.27818
H          2.77319       -0.29326       -2.27561
C          3.85280        2.70167       -0.14541
H          3.10235        1.59360        1.51662
C          4.02450        2.73994       -1.51755
H          3.78428        1.69667       -3.34917
H          4.10878        3.57361        0.43548
Pd         0.17870       -1.05880       -1.19136
Cl        -1.22477       -1.30610       -2.93022
Cl         1.79171       -2.14150       -2.33309
H          2.30601       -5.58962        0.58091
H          1.27548       -3.50823       -0.24345
H          5.55057       -3.37550        2.18414
H          4.52867       -1.27046        1.35074
C         -2.15535        6.76144       -0.12430
C         -0.95956        5.80898        0.16967
C         -0.70503        5.61843        1.69777
F         -2.40564        6.70773       -1.44107
F         -3.23633        6.35757        0.55718
F         -1.81786        8.01083        0.23197
F          0.13611        6.34596       -0.37225
F         -1.74785        4.97285        2.23695
F          0.38781        4.85372        1.83221
F         -0.52276        6.81015        2.28249
C         -6.75200       -3.69473       -2.90216
C         -6.75733       -2.14550       -2.74042
C         -7.92538       -1.64846       -1.84099
F         -7.83177       -4.06819       -3.60603
F         -5.63261       -4.02976       -3.56108
F         -6.75658       -4.27338       -1.69323
F         -6.92083       -1.61191       -3.95410
F         -7.89153       -0.30734       -1.84525
F         -9.09182       -2.08556       -2.33857
F         -7.74313       -2.10077       -0.59161
C          3.04914        4.87739       -2.22999
C          4.35773        4.03345       -2.21226
C          5.53979        4.76022       -1.50763
F          2.11842        4.15724       -2.87320
F          2.64583        5.08186       -0.96876
F          3.26765        6.03973       -2.86202
F          4.71569        3.80081       -3.47784
F          6.56546        3.89773       -1.44572
F          5.88522        5.83830       -2.22860
F          5.17631        5.12077       -0.26894
C          3.35984       -5.58467        3.58559
C          4.32062       -5.74263        2.36282
C          4.17341       -7.12060        1.65515
F          2.09202       -5.57168        3.15148
F          3.55940       -6.58651        4.45222
F          3.63112       -4.40513        4.16023
F          5.57626       -5.63401        2.80333
F          2.88878       -7.33010        1.33586
F          4.91882       -7.08683        0.54043
F          4.61538       -8.08493        2.47719
