111
-148.55612713
P         -2.57639        2.03504        0.83882
P          0.13566        0.43667        0.48845
C         -1.48196        1.79784        2.26443
C         -0.28374        1.13760        2.09713
C         -3.42136        3.68082        0.87170
C         -2.82752        4.62394       -0.15175
C         -1.84426        2.26035        3.51328
H         -2.79150        2.75754        3.64332
C         -0.99721        2.06819        4.59122
H         -1.27925        2.42965        5.56663
C          0.20629        1.41148        4.41930
H          0.86448        1.25992        5.25894
C          0.56194        0.93985        3.16847
H          1.48998        0.41011        3.01982
Pd        -1.31438        1.46661       -0.99897
Cl        -2.94982        2.12865       -2.37935
Cl         0.08906        0.82992       -2.64006
C         -4.89693        3.31322        0.62613
C         -4.04384        0.90832        0.83560
H         -2.92713        4.21554       -1.15851
H         -3.32905        5.59447       -0.13891
H         -1.76295        4.78892        0.03092
H         -5.10475        3.39195       -0.44993
H         -5.56089        4.04588        1.10967
H         -4.11263        0.50218       -0.18259
C         -5.21609        1.86916        1.10856
C         -3.88964       -0.20496        1.84885
H         -3.29048        4.07979        1.88552
H         -5.42021        1.88023        2.18810
H         -6.13707        1.49245        0.63807
H         -3.01934       -0.82476        1.62410
H         -3.75259        0.20092        2.85286
H         -4.76917       -0.85264        1.86859
C         -1.20615       -3.91022        0.23759
C         -1.06603       -3.29538        1.50862
C         -0.63906       -1.97883        1.55832
C         -0.42804       -1.26252        0.40985
C         -0.66652       -1.82082       -0.81758
C         -1.09485       -3.12981       -0.94111
O         -1.41775       -5.31166        0.14683
C         -1.33996       -4.04576        2.82132
H         -0.45850       -1.49349        2.50103
H         -0.49868       -1.21142       -1.68820
C         -1.40311       -3.67817       -2.34261
C          4.52751        0.76771       -0.66953
C          3.81308       -0.43076       -0.92176
C          2.47932       -0.48487       -0.55651
C          1.87555        0.56051        0.09135
C          2.58684        1.68303        0.42543
C          3.92844        1.79994        0.09815
O          5.82510        0.95015       -1.21730
C          4.43924       -1.64749       -1.62075
H          1.88314       -1.34833       -0.79310
H          2.07324        2.47494        0.94278
C          4.70372        3.04699        0.55186
C         -1.79438       -3.06749        3.92861
C         -2.46958       -5.07624        2.64214
C         -0.05356       -4.74568        3.28465
C         -1.94799       -2.55467       -3.25525
C         -0.11285       -4.23397       -2.96434
C         -2.48366       -4.77303       -2.28792
C         -0.21910       -6.07087        0.04985
H         -2.10136       -3.61105        4.82187
H         -0.99304       -2.39256        4.22557
H         -2.64183       -2.46960        3.59503
H         -2.70833       -5.56439        3.58669
H         -3.37341       -4.59400        2.27120
H         -2.18988       -5.85149        1.93294
H         -0.21339       -5.27467        4.22385
H          0.28969       -5.46735        2.54739
H          0.74589       -4.02086        3.43681
H         -1.18482       -1.81243       -3.48384
H         -2.29243       -2.96094       -4.20584
H         -2.78867       -2.04600       -2.78414
H          0.30643       -5.03192       -2.35579
H         -0.29975       -4.63210       -3.96128
H          0.64095       -3.45162       -3.04996
H         -3.38709       -4.39616       -1.80961
H         -2.74672       -5.11450       -3.28875
H         -2.14484       -5.63828       -1.72404
H          0.65188       -5.41736        0.11461
H         -0.18564       -6.80290        0.85669
H         -0.19952       -6.60787       -0.89823
C          5.82754        1.54219       -2.51038
C          5.94161       -1.75984       -1.30538
C          3.77786       -2.95740       -1.13218
C          4.22117       -1.52512       -3.13658
C          6.18527        2.71639        0.80939
C          4.58413        4.13933       -0.52148
C          4.12859        3.59322        1.87866
H          6.49340       -0.90602       -1.69016
H          6.10516       -1.80519       -0.22920
H          6.36976       -2.65689       -1.75200
H          4.30341       -3.82665       -1.52688
H          3.79793       -3.01961       -0.04445
H          2.74259       -3.03538       -1.46046
H          4.68815       -0.62554       -3.53043
H          4.64162       -2.38176       -3.66266
H          3.15763       -1.47389       -3.36906
H          6.68578        2.40013       -0.10239
H          6.71964        3.58486        1.19371
H          6.27777        1.91137        1.53764
H          3.53961        4.39880       -0.69230
H          5.11197        5.04343       -0.21910
H          5.00151        3.80811       -1.46926
H          3.12825        4.00273        1.74682
H          4.75336        4.39599        2.26962
H          4.08172        2.80823        2.63307
H          6.41401        2.46063       -2.49043
H          6.28759        0.86016       -3.22515
H          4.80824        1.76724       -2.82693
