171
-217.84247335
P         -1.62342        0.36684       -0.42571
P          1.58529       -0.40948       -0.30620
C         -0.88112        1.28035       -1.78088
C          0.91468       -1.42168       -1.62685
C         -0.06056        0.62514       -2.69237
C          0.58398        1.38390       -3.68877
C          0.35315        2.74768       -3.75727
C         -0.49143        3.37204       -2.86416
C         -1.10259        2.63287       -1.87082
C          1.14396       -2.77573       -1.59201
C          0.58384       -3.60016       -2.54733
C         -0.22293       -3.05855       -3.52530
C         -0.46702       -1.69583       -3.57696
C          0.13221       -0.85060       -2.62368
Cl         1.46805        0.35865        2.88334
Cl        -1.69442       -0.46293        2.78480
C         -1.34296       -1.14782       -4.64776
C          1.50422        0.75062       -4.67314
H         -0.67052        4.43230       -2.93736
H         -1.76107        3.11382       -1.16628
H          1.76520       -3.19129       -0.81548
H          0.77120       -4.66125       -2.52270
H          0.84493        3.32188       -4.52436
H         -0.67458       -3.69852       -4.26445
C         -3.98458       -3.24932       -1.75686
C         -2.93543       -3.42454       -0.86263
C         -2.21819       -2.30042       -0.47349
C         -2.53735       -1.06612       -0.98057
C         -3.57230       -0.90883       -1.86907
C         -4.32526       -2.00432       -2.27373
H         -4.55743       -4.11109       -2.04288
H         -1.40831       -2.37486        0.23149
H         -3.80384        0.07893       -2.23196
C         -4.21074        2.90117        2.31046
C         -4.76824        1.77911        1.71023
C         -3.96974        1.03883        0.84735
C         -2.67345        1.41638        0.59804
C         -2.13754        2.52389        1.20804
C         -2.89526        3.28785        2.08536
H         -4.81965        3.47565        2.98272
H         -4.34491        0.14468        0.38226
H         -1.10971        2.77936        1.01507
C          4.34631       -2.76461        2.42022
C          3.00160       -3.11542        2.36730
C          2.17744       -2.40780        1.50236
C          2.67849       -1.38000        0.74355
C          4.00503       -1.03797        0.81944
C          4.87014       -1.72701        1.65735
H          4.99899       -3.30649        3.07699
H          1.12953       -2.64649        1.43377
H          4.36853       -0.21487        0.22943
C          3.93127        3.22746       -1.60532
C          2.93385        3.37946       -0.64948
C          2.19984        2.25586       -0.29422
C          2.45841        1.04237       -0.88014
C          3.44743        0.90604       -1.82293
C          4.21016        2.00428       -2.20332
H          4.52660        4.07723       -1.88128
H          1.43774        2.31971        0.46380
H          3.63109       -0.06994       -2.23932
Pd        -0.07626        0.01495        1.29083
C         -2.39229       -5.80169       -1.46643
C         -2.62821       -4.82014       -0.30323
C         -3.82099       -5.29555        0.54507
C         -1.36861       -4.80786        0.58400
H         -1.57893       -5.45546       -2.10288
H         -2.13080       -6.79190       -1.09373
H         -3.28118       -5.90541       -2.08722
H         -3.62986       -6.28064        0.97033
H         -4.00860       -4.60333        1.36576
H         -4.72951       -5.35905       -0.05290
H         -1.14376       -5.80926        0.95068
H         -0.50320       -4.45645        0.02346
H         -1.50444       -4.16296        1.45189
C         -5.06255       -1.11398       -4.51049
C         -5.52507       -1.79845       -3.21133
C         -6.56475       -0.91000       -2.50509
C         -6.19553       -3.13542       -3.58253
H         -4.34899       -1.74127       -5.04262
H         -5.90668       -0.93248       -5.17563
H         -4.58709       -0.15499       -4.30886
H         -7.43819       -0.75187       -3.13744
H         -6.89960       -1.37495       -1.57814
H         -6.14736        0.06656       -2.26194
H         -7.03072       -2.97270       -4.26372
H         -5.49039       -3.80280       -4.07783
H         -6.58674       -3.63827       -2.69833
C         -6.63787        0.11273        1.26348
C         -6.20905        1.36900        2.04580
C         -7.16688        2.51842        1.68220
C         -6.30802        1.06290        3.55141
H         -7.66431       -0.16313        1.50474
H         -6.58675        0.28934        0.19006
H         -6.00213       -0.73871        1.50587
H         -7.08850        2.76357        0.62314
H         -8.20113        2.24418        1.88948
H         -6.94133        3.41900        2.25196
H         -7.31518        0.74490        3.82021
H         -5.61663        0.26671        3.82688
H         -6.06342        1.93931        4.15038
C         -2.10576        5.62742        1.69783
C         -2.27009        4.52073        2.75329
C         -0.89318        4.15051        3.34075
C         -3.15088        5.05399        3.90001
H         -3.07476        5.92426        1.29695
H         -1.63071        6.51009        2.12560
H         -1.49482        5.28467        0.86437
H         -0.98419        3.32035        4.04089
H         -0.19194        3.85508        2.56272
H         -0.45564        4.99526        3.87235
H         -3.33204        4.27901        4.64463
H         -2.66633        5.89129        4.40216
H         -4.11184        5.40908        3.52880
C          1.16270       -3.71847        3.96849
C          2.40309       -4.24437        3.21806
C          3.40963       -4.76908        4.26006
C          1.99812       -5.40502        2.29339
H          1.42200       -2.85551        4.58136
H          0.37641       -3.41267        3.27999
H          0.74768       -4.48545        4.62197
H          4.28149       -5.21158        3.77886
H          3.74573       -3.96659        4.91647
H          2.95463       -5.53892        4.88320
H          1.54798       -6.21955        2.86054
H          1.27750       -5.07568        1.54676
H          2.86659       -5.79847        1.76547
C          6.43025        0.16900        2.15890
C          6.34466       -1.30396        1.71525
C          6.97085       -1.45947        0.31681
C          7.14703       -2.16279        2.71101
H          5.92558        0.82669        1.45198
H          5.96143        0.30451        3.13331
H          7.46756        0.49470        2.23384
H          6.46158       -0.83484       -0.41603
H          8.02241       -1.17324        0.32555
H          6.90433       -2.49311       -0.02206
H          6.74617       -2.07013        3.72022
H          7.12866       -3.21451        2.42590
H          8.18999       -1.84753        2.74034
C          1.19406        5.13391       -0.25513
C          2.64331        4.71630        0.04565
C          3.58509        5.83366       -0.44198
C          2.83234        4.54695        1.56518
H          0.49172        4.36899        0.07101
H          0.94103        6.06472        0.25209
H          1.05211        5.28231       -1.32505
H          4.62647        5.58647       -0.23648
H          3.47338        6.00127       -1.51307
H          3.36312        6.77349        0.06346
H          2.63158        5.48046        2.09050
H          2.16305        3.78774        1.96702
H          3.85354        4.24273        1.79369
C          5.20775        2.90227       -4.33131
C          5.38293        1.88575       -3.18719
C          5.47300        0.47340       -3.79795
C          6.69484        2.17597       -2.43489
H          6.01548        2.81306       -5.05758
H          4.26628        2.73989       -4.85434
H          5.21022        3.92578       -3.95891
H          5.65119       -0.27729       -3.02832
H          4.55665        0.21409       -4.32697
H          6.29495        0.41248       -4.51113
H          6.69737        3.18395       -2.02141
H          6.82844        1.47693       -1.60954
H          7.55452        2.08397       -3.09842
H         -2.11040       -1.87006       -4.92754
H          1.80584       -0.24813       -4.35484
H         -0.76616       -0.91209       -5.54276
H         -1.84682       -0.23779       -4.31883
H          2.41011        1.34516       -4.79229
H          1.03043        0.66595       -5.65202
