87
-129.18236928
P         -1.73620       -0.32632        0.05761
P          1.57025        0.32322       -0.24781
C         -1.42799        0.98683       -1.15088
C          1.22879       -0.71359       -1.67372
C         -0.57365        0.89488       -2.24766
C         -0.37707        2.03561       -3.04971
C         -1.04751        3.20724       -2.74309
C         -1.88566        3.28168       -1.65252
C         -2.06631        2.16856       -0.85445
C          1.99357       -1.82729       -1.91896
C          1.73364       -2.61122       -3.02585
C          0.70466       -2.27121       -3.87999
C         -0.08033       -1.15332       -3.64770
C          0.19246       -0.34882       -2.52352
Cl         1.44278        1.48541        2.76362
Cl        -1.22046       -0.27617        3.28140
H         -2.38986        4.20447       -1.41684
H         -2.70449        2.21943        0.01529
H          2.79792       -2.08020       -1.24847
H          2.33025       -3.48769       -3.21868
H         -0.89290        4.07440       -3.36258
H          0.49618       -2.88402       -4.74049
C         -0.76508       -4.60680       -1.12860
C         -0.26273       -4.09674        0.06038
C         -0.57969       -2.78868        0.40620
C         -1.36342       -2.01707       -0.42120
C         -1.88838       -2.54350       -1.57745
C         -1.58365       -3.84296       -1.93677
H         -0.51506       -5.61478       -1.41275
C          0.61903       -4.92305        0.92815
H         -0.24592       -2.38528        1.34701
H         -2.52074       -1.93183       -2.20019
H         -1.97691       -4.25483       -2.85168
C         -6.18289       -0.16478        1.03480
C         -5.75261       -0.13907       -0.27713
C         -4.40009       -0.18880       -0.56087
C         -3.48914       -0.25888        0.46805
C         -3.91875       -0.28530        1.77299
C         -5.27229       -0.24589        2.07878
H         -7.23508       -0.12002        1.25906
H         -6.46921       -0.07795       -1.07975
H         -4.04915       -0.16166       -1.58056
H         -3.19267       -0.33085        2.56447
C         -5.72924       -0.24607        3.49532
C          5.00060       -1.42830        2.18902
C          5.12151       -0.17036        1.63322
C          4.08332        0.35612        0.88855
C          2.93669       -0.37904        0.69900
C          2.81381       -1.63169        1.25395
C          3.84287       -2.17384        2.01376
H          5.80792       -1.84055        2.77000
H          6.02152        0.40306        1.78357
H          4.15933        1.34238        0.46081
H          1.91261       -2.19733        1.09478
C          3.70681       -3.53240        2.60579
C          2.63585        4.51014       -1.65212
C          3.22786        3.41092       -2.24277
C          2.90892        2.13830       -1.80631
C          2.00921        1.97929       -0.77858
C          1.42844        3.07198       -0.17890
C          1.72252        4.35674       -0.61805
H          2.88129        5.50204       -1.99141
H          3.93291        3.54339       -3.04695
H          3.34871        1.26709       -2.26615
H          0.74209        2.92974        0.63835
C          1.09504        5.53743        0.03470
Pd         0.01640        0.29420        1.50442
C          0.54726        2.01771       -4.21790
C         -1.19266       -0.83053       -4.58327
H          1.23903        1.17628       -4.16859
H         -0.00910        1.94429       -5.15306
H          1.14473        2.92974       -4.25416
H         -1.86365       -0.08076       -4.16238
H         -0.80675       -0.44576       -5.52806
H         -1.78744       -1.71876       -4.80123
H          0.59931       -4.56979        1.96000
H          0.30138       -5.96668        0.92997
H          1.65091       -4.88583        0.57641
H         -6.70066       -0.73218        3.59598
H         -5.02419       -0.77872        4.13520
H         -5.82093        0.77340        3.87245
H          4.45480       -3.70402        3.38104
H          2.72411       -3.66136        3.06148
H          3.83140       -4.30242        1.84324
H          1.67210        5.84994        0.90604
H          1.03463        6.38282       -0.65215
H          0.08147        5.30773        0.36694
