115
-277.94133889
P         -2.34774       -0.19512        0.41992
P          1.29681       -0.35921        0.46777
C         -2.11456        1.56471       -0.03317
C         -2.15999        1.81616       -1.38936
H         -2.39562        1.01374       -2.07044
C         -1.82137        3.05682       -1.88773
H         -1.78417        3.24190       -2.94986
C         -1.43631        4.06364       -1.02719
C         -1.44496        3.82665        0.33384
H         -1.12081        4.61131        0.99754
C         -1.79231        2.58915        0.82656
H         -1.78365        2.42660        1.88430
C         -3.90724       -0.78514       -0.24454
C         -4.12821       -2.14086       -0.29627
H         -3.36264       -2.82154        0.04076
C         -5.33250       -2.62044       -0.76759
H         -5.52904       -3.67988       -0.80286
C         -6.31783       -1.74557       -1.18505
C         -6.08646       -0.38516       -1.12385
H         -6.87225        0.28560       -1.43375
C         -4.88045        0.09587       -0.65516
H         -4.70292        1.15730       -0.59556
C         -2.03452       -1.06371        1.99231
C         -1.25797       -2.20040        1.85918
H         -0.83703       -2.44658        0.89941
C         -0.86963       -2.94333        2.97392
C         -1.48735       -2.65522        4.18674
H         -1.23472       -3.23646        5.05772
C         -2.28923       -1.53893        4.31965
H         -2.65923       -1.26443        5.29275
C         -2.48595       -0.66502        3.25152
C          0.99034       -0.36640        2.26950
C          0.19940        0.70899        2.61978
H         -0.13588        1.35947        1.83138
C         -0.29087        0.86292        3.92095
C          0.26111        0.05112        4.90764
H         -0.05619        0.17316        5.92974
C          1.07228       -1.01356        4.57016
H          1.37996       -1.70651        5.33499
C          1.34697       -1.31670        3.23752
C         -2.83212        0.77082        3.55341
H         -3.69742        0.80143        4.22414
H         -3.18045        1.24314        2.63146
C         -1.61621        1.54626        4.18236
H         -1.57632        2.58829        3.85191
H         -1.75048        1.61136        5.26745
C          0.42907       -3.70929        2.95602
H          0.44534       -4.40343        2.10876
H          0.47307       -4.35257        3.84170
C          1.67588       -2.75720        2.91785
H          2.45648       -3.11628        3.59850
H          2.14226       -2.81064        1.93887
C          2.34669       -1.77039        0.05866
C          1.79592       -2.93128       -0.44457
C          3.64780       -1.76009        0.51910
C          2.50643       -4.11140       -0.37477
C          4.35110       -2.94631        0.60529
C          3.75680       -4.13920        0.21985
C          2.25815        1.11311        0.05560
C          2.29229        1.65208       -1.20951
C          3.01959        1.66693        1.05894
C          3.08985        2.74846       -1.47112
H          1.71936        1.19958       -2.00128
C          3.82529        2.75464        0.79486
H          2.99423        1.23824        2.04831
C          3.86435        3.30603       -0.47157
H          3.11203        3.19917       -2.45307
H          4.44985        3.17541        1.56579
Pd        -0.51023       -0.67601       -1.00430
Cl        -2.13360       -1.21591       -2.46920
Cl         1.04982       -0.86359       -2.60977
H          5.31820       -2.97347        1.08096
H          4.07160       -0.84816        0.90888
H          2.05211       -5.04846       -0.65753
H          0.78508       -2.94162       -0.81574
C         -1.15308        6.55382       -0.72213
C         -0.80707        5.30912       -1.59162
C          0.72375        5.03783       -1.67644
F         -0.56458        6.44591        0.47719
F         -0.73481        7.66171       -1.35362
F         -2.48540        6.58328       -0.57020
F         -1.25755        5.53428       -2.82869
F          0.90493        4.03049       -2.54184
F          1.35762        6.14026       -2.10162
F          1.16602        4.66550       -0.46686
C         -7.52812       -3.47981       -2.55545
C         -7.67346       -2.25155       -1.60869
C         -8.49390       -2.58327       -0.32892
F         -7.02033       -4.51610       -1.87386
F         -8.73195       -3.79311       -3.05879
F         -6.69051       -3.13254       -3.54405
F         -8.32895       -1.29950       -2.27835
F         -7.81940       -3.47836        0.40758
F         -8.63442       -1.44300        0.36356
F         -9.69556       -3.06537       -0.67884
C          5.03644        5.38146        0.39013
C          4.83807        4.40853       -0.81119
C          6.17518        3.74474       -1.24938
F          5.66191        4.74279        1.38880
F          5.75915        6.43791       -0.01456
F          3.82500        5.78424        0.80358
F          4.38432        5.12416       -1.84406
F          7.08566        4.69491       -1.50951
F          6.60318        2.93097       -0.27247
F          5.92146        3.02865       -2.35522
C          5.78631       -5.49272        0.92190
C          4.23922       -5.46372        0.75871
C          3.48307       -5.67844        2.10963
F          6.15840       -4.61638        1.86502
F          6.16888       -6.73437        1.25820
F          6.32600       -5.14607       -0.25607
F          3.89216       -6.45181       -0.06959
F          3.87652       -6.82887        2.67195
F          3.72791       -4.64057        2.92010
F          2.17156       -5.71418        1.83564
