111
-148.55056179
P         -2.27253        2.34674        0.05368
P         -0.09912        0.10102        0.56817
C         -1.75606        1.96391        1.74784
C         -0.83181        0.96666        1.96593
C         -2.22766        4.17178       -0.23514
C         -1.43162        4.48928       -1.48226
C         -2.27198        2.66888        2.81637
H         -2.98002        3.46172        2.63868
C         -1.86869        2.36032        4.10419
H         -2.27286        2.90860        4.93944
C         -0.94792        1.35274        4.31996
H         -0.63293        1.11345        5.32228
C         -0.42389        0.65568        3.24574
H          0.30617       -0.12494        3.39325
Pd        -1.06587        0.96917       -1.35291
Cl        -2.43958        1.65406       -2.98819
Cl         0.23684       -0.45667       -2.49460
C         -3.72115        4.54668       -0.32938
C         -4.06499        2.00400       -0.26883
H         -1.88649        4.02020       -2.35667
H         -1.38835        5.56511       -1.66853
H         -0.40708        4.11691       -1.40618
H         -3.84109        5.40817       -1.00250
H         -4.08488        4.88518        0.65193
H         -4.09404        1.22809       -1.04629
C         -4.58692        3.34954       -0.81369
C         -4.77760        1.51914        0.97563
H         -1.75673        4.62340        0.64874
H         -5.63680        3.48430       -0.51556
H         -4.59190        3.32824       -1.91342
H         -5.82135        1.27140        0.76854
H         -4.29461        0.63037        1.38870
H         -4.77132        2.28802        1.74944
C         -1.09200       -4.33824        0.51103
C          0.14828       -3.92002        1.05860
C          0.43948       -2.56617        1.06798
C         -0.46708       -1.64757        0.60781
C         -1.71053       -2.03692        0.18306
C         -2.07011       -3.37409        0.15637
O         -1.34033       -5.71893        0.28857
C          1.19145       -4.91352        1.59393
H          1.38699       -2.20987        1.43171
H         -2.39937       -1.27523       -0.14124
C         -3.49075       -3.75072       -0.29194
C          4.24927        1.35232        0.04724
C          3.27572        2.28523        0.49420
C          1.97736        1.83809        0.67676
C          1.62049        0.55168        0.36247
C          2.52467       -0.30828       -0.20324
C          3.84017        0.07067       -0.40859
O          5.62897        1.67354        0.12235
C          3.56882        3.77134        0.76058
H          1.22078        2.49815        1.06765
H          2.18584       -1.28340       -0.50630
C          4.76683       -0.91410       -1.14139
C          2.10784       -5.35628        0.44287
C          2.06270       -4.25768        2.68936
C          0.51219       -6.13783        2.23385
C         -4.49500       -2.63745        0.08701
C         -3.51008       -3.92616       -1.81810
C         -3.96909       -5.03981        0.40000
C         -0.95640       -6.17657       -1.00205
H          2.87722       -6.04170        0.79741
H          1.54451       -5.85968       -0.33877
H          2.60259       -4.49668       -0.00827
H          1.44038       -3.81744        3.46806
H          2.71357       -4.99512        3.15860
H          2.70568       -3.47926        2.28117
H          1.24950       -6.81302        2.66740
H         -0.17066       -5.82814        3.02428
H         -0.05968       -6.70230        1.50154
H         -4.41815       -2.38965        1.14538
H         -4.32910       -1.72974       -0.49134
H         -5.51839       -2.95686       -0.10844
H         -3.20095       -3.00661       -2.31472
H         -2.83172       -4.71504       -2.13359
H         -4.50962       -4.18053       -2.16960
H         -3.92054       -4.93404        1.48325
H         -4.99828       -5.27215        0.12748
H         -3.35495       -5.89220        0.12112
H         -1.82908       -6.56083       -1.52969
H         -0.51185       -5.36326       -1.57714
H         -0.23605       -6.98833       -0.90205
C          6.20818        1.32208        1.36757
C          2.47044        4.63706        0.10313
C          3.57146        4.02874        2.27624
C          4.91296        4.21754        0.15959
C          4.03149       -1.49649       -2.36970
C          6.04369       -0.23273       -1.66318
C          5.14610       -2.06239       -0.19210
H          2.69985        5.69763        0.20305
H          2.38698        4.40999       -0.95934
H          1.49640        4.47287        0.56104
H          2.61525        3.75217        2.71954
H          4.34763        3.44915        2.77231
H          3.74951        5.08194        2.49189
H          5.05836        5.29131        0.27537
H          5.74733        3.71815        0.64646
H          4.95600        3.98065       -0.90292
H          3.18394       -2.11526       -2.08010
H          3.66062       -0.69696       -3.01033
H          4.69925       -2.12084       -2.96267
H          5.79368        0.62552       -2.28592
H          6.66511        0.11988       -0.84330
H          6.64243       -0.92228       -2.25776
H          5.77080       -2.79712       -0.69941
H          4.25645       -2.57333        0.17413
H          5.69618       -1.69415        0.67164
H          5.70156        1.84589        2.17652
H          6.11719        0.24981        1.53264
H          7.26287        1.59796        1.36409
