72
-108.39588922
Cl        -1.95036        0.11239        2.75520
Cl         0.76490       -1.44682        2.72930
P          1.23945       -0.96833       -0.32454
P         -2.21993        0.20272       -0.35326
C         -3.39680       -1.28608       -0.29128
C         -4.14106       -1.29138        1.04062
C         -4.40728       -1.23358       -1.44673
C         -3.13867        1.85537       -0.07999
C         -4.49594        1.82405       -0.77454
C         -1.42804        0.40287       -2.05270
C         -1.32469       -0.84511       -2.91257
C          1.15741        0.37105       -1.55043
C         -0.06027        1.06512       -1.97671
C          0.37125        2.21123       -2.78012
C          1.81932        2.19115       -2.87042
C          2.30457        1.03136       -2.14673
C         -2.55857       -2.55999       -0.38034
H         -3.44629       -1.33030        1.87867
H         -4.76805       -0.40943        1.15631
H         -5.27921       -0.63232       -1.19336
H         -4.77844       -2.23238       -1.68243
C         -3.32716        2.13663        1.40552
H         -4.95131        2.81575       -0.76936
H         -5.18807        1.15606       -0.26536
H         -2.11167        1.09507       -2.55761
H         -2.27390       -1.35694       -3.05610
H         -0.62263       -1.54988       -2.47614
H         -0.93723       -0.60048       -3.90354
H         -0.29075        2.89032       -3.32082
H          2.43533        2.89422       -3.43574
Pd        -0.49969       -0.46225        1.14554
H          3.34594        0.74137       -1.99222
C         -2.30126        2.97470       -0.69455
H         -4.40047        1.51161       -1.81469
H         -2.36676        2.23115        1.91025
H         -3.87251        3.06917        1.55871
H         -3.88632        1.34282        1.89770
H         -2.32076        2.94652       -1.78364
H         -2.67647        3.95414       -0.39263
H         -1.26707        2.89785       -0.37386
H         -4.79157       -2.16450        1.11305
H         -3.97696       -0.81314       -2.35301
H         -3.19648       -3.44459       -0.34060
H         -1.98907       -2.61382       -1.30465
H         -1.86024       -2.63062        0.45321
C          2.93152       -1.02791        0.31618
C          3.39950       -1.99722        1.16760
C          4.73594       -1.69927        1.43377
C          5.03061       -0.55827        0.72909
O          3.93214       -0.13555        0.03767
H          2.83027       -2.82328        1.56172
H          5.40495       -2.25499        2.07032
H          5.98892       -0.05395        0.71436
C          0.84563       -2.60804       -0.95312
C          0.57148       -3.64546       -0.09778
C          0.30702       -4.76651       -0.88562
C          0.43316       -4.36374       -2.19299
O          0.76161       -3.03895       -2.24926
H          0.55680       -3.58163        0.97890
H          0.05432       -5.75417       -0.53612
H          0.29486       -4.99176       -3.06438
Fe         1.23276        2.25926       -0.91935
C          2.88276        2.66189        0.21920
C          1.91402        1.93985        1.01838
C          0.68350        2.70122        1.01137
C          0.89536        3.90708        0.22965
C          2.26053        3.88191       -0.26320
H          3.91363        2.34795        0.04024
H          2.08284        1.00126        1.54961
H         -0.21187        2.44164        1.57834
H          0.17633        4.71633        0.08130
H          2.74199        4.65439       -0.86762
