171
-217.84368281
P         -1.63095        0.43325       -0.39114
P          1.58314       -0.38563       -0.38393
C         -0.90117        1.40448       -1.71248
C          0.87112       -1.31775       -1.73784
C         -0.08401        0.80443       -2.66440
C          0.57542        1.62376       -3.60144
C          0.36056        2.99171       -3.57560
C         -0.47960        3.56300       -2.64356
C         -1.10204        2.76350       -1.70544
C          1.08493       -2.67303       -1.78883
C          0.51519       -3.42589       -2.79690
C         -0.28266       -2.81230       -3.73964
C         -0.50961       -1.44606       -3.70386
C          0.09468       -0.67415       -2.69387
Cl         1.55759        0.51166        2.81732
Cl        -1.55923       -0.38191        2.84390
C         -1.35787       -0.80789       -4.74713
C          1.51365        1.05581       -4.60879
H         -0.64138        4.62854       -2.63838
H         -1.74603        3.20301       -0.96108
H          1.70202       -3.14236       -1.03943
H          0.69197       -4.48797       -2.84448
H          0.86645        3.61215       -4.29613
H         -0.73703       -3.39739       -4.52132
C         -3.92618       -3.29297       -1.53027
C         -2.89539       -3.39090       -0.60300
C         -2.17448       -2.24059       -0.31223
C         -2.48777       -1.04842       -0.91627
C         -3.51383       -0.96566       -1.82519
C         -4.26213       -2.09205       -2.14595
H         -4.48976       -4.17364       -1.76995
H         -1.37029       -2.26834        0.40276
H         -3.74540       -0.01082       -2.26721
C         -4.31429        2.81865        2.38765
C         -4.86088        1.76740        1.66057
C         -4.02811        1.07936        0.78853
C         -2.70726        1.42806        0.65625
C         -2.18355        2.46686        1.38521
C         -2.97641        3.17908        2.27495
H         -4.94302        3.36325        3.06512
H         -4.40961        0.25060        0.21827
H         -1.13984        2.70934        1.27676
C          4.19575       -2.92636        2.32550
C          2.82914       -3.18042        2.28357
C          2.05214       -2.42267        1.41744
C          2.61926       -1.43644        0.64902
C          3.96795       -1.19186        0.71276
C          4.78778       -1.93785        1.54759
H          4.81147       -3.50360        2.98785
H          0.98875       -2.58389        1.36404
H          4.38537       -0.39698        0.12014
C          4.02046        3.17446       -1.72145
C          2.98169        3.37780       -0.82162
C          2.23829        2.27237       -0.42823
C          2.51740        1.03194       -0.94420
C          3.53302        0.84947       -1.84995
C          4.31458        1.92541       -2.25412
H          4.63238        4.01245       -1.99977
H          1.44211        2.36596        0.28966
H          3.71610       -0.14301       -2.22586
Pd        -0.01332        0.06217        1.26367
C         -1.19159       -5.21310       -0.45761
C         -2.53354       -4.70927        0.09638
C         -3.60428       -5.79234       -0.13903
C         -2.41480       -4.47507        1.61600
H         -0.40778       -4.47231       -0.30767
H         -0.88535       -6.13693        0.03278
H         -1.26723       -5.40681       -1.52724
H         -3.36039       -6.70209        0.40953
H         -4.58350       -5.45294        0.19844
H         -3.67382       -6.05689       -1.19384
H         -2.19918       -5.40689        2.13848
H         -1.61673       -3.77376        1.85349
H         -3.34411       -4.07061        2.01638
C         -6.19693       -3.30368       -3.27910
C         -5.44960       -1.96611       -3.11291
C         -4.94277       -1.51781       -4.49414
C         -6.44054       -0.92311       -2.56325
H         -6.58676       -3.65643       -2.32438
H         -7.04165       -3.19223       -3.95886
H         -5.54234       -4.07097       -3.69208
H         -5.76905       -1.41052       -5.19672
H         -4.43001       -0.55865       -4.43408
H         -4.24795       -2.25061       -4.90299
H         -5.97972        0.06145       -2.49518
H         -7.31438       -0.83622       -3.20872
H         -6.78293       -1.20539       -1.56779
C         -7.05210        2.11194        2.91220
C         -6.33114        1.34365        1.78784
C         -6.40398       -0.16262        2.10759
C         -7.05053        1.62629        0.45757
H         -8.08423        1.77550        3.00981
H         -6.55995        1.95336        3.87163
H         -7.07480        3.18190        2.70669
H         -7.43658       -0.48218        2.24669
H         -5.97835       -0.76323        1.30473
H         -5.85422       -0.38810        3.02113
H         -8.09722        1.32658        0.50670
H         -7.01288        2.68858        0.21704
H         -6.58345        1.08287       -0.36221
C         -1.09209        3.79255        3.81648
C         -2.34995        4.31607        3.09423
C         -3.32451        4.85888        4.15715
C         -1.96647        5.46375        2.14445
H         -0.65055        4.56730        4.44283
H         -1.34022        2.94332        4.45273
H         -0.33032        3.46604        3.11037
H         -4.20966        5.29510        3.69481
H         -3.64198        4.06760        4.83607
H         -2.85019        5.63762        4.75429
H         -1.49399        6.28154        2.68827
H         -1.27177        5.12209        1.37913
H         -2.84858        5.85705        1.63952
C          3.15583       -4.92628        4.10982
C          2.14694       -4.21946        3.18476
C          1.46044       -5.28089        2.30780
C          1.09505       -3.51016        4.06001
H          2.65249       -5.65511        4.74501
H          3.91152       -5.45878        3.53264
H          3.65711       -4.21140        4.76205
H          0.69998       -4.83002        1.67370
H          2.18500       -5.77614        1.66169
H          0.97594       -6.04132        2.92001
H          0.32670       -3.03424        3.45220
H          0.60151       -4.21579        4.72782
H          1.56103       -2.73579        4.66882
C          6.48464       -0.16208        2.04432
C          6.28949       -1.62215        1.59341
C          6.89054       -1.81368        0.18835
C          7.03753       -2.54283        2.57622
H          6.03740        0.00021        3.02475
H          7.54326        0.08855        2.10919
H          6.02007        0.53410        1.34684
H          7.96044       -1.60610        0.18952
H          6.74487       -2.83717       -0.15648
H          6.42313       -1.14783       -0.53596
H          8.10164       -2.30741        2.59253
H          6.65843       -2.42377        3.59103
H          6.93567       -3.58908        2.28854
C          2.52122        5.77131       -1.42758
C          2.71234        4.78115       -0.26318
C          3.90856        5.21722        0.60076
C          1.44052        4.80597        0.60573
H          2.28703        6.76886       -1.05630
H          3.42001        5.84769       -2.03797
H          1.70441        5.45174       -2.07372
H          4.06333        4.51871        1.42296
H          4.82606        5.25145        0.01416
H          3.74390        6.20769        1.02457
H          1.23539        5.81459        0.96411
H          0.57544        4.47252        0.03347
H          1.54795        4.16281        1.47873
C          6.80961        1.97488       -2.38049
C          5.51934        1.75283       -3.18993
C          5.44635        2.77860       -4.33758
C          5.56021        0.34042       -3.80616
H          7.69177        1.84919       -3.00798
H          6.83867        2.97822       -1.95657
H          6.87560        1.26348       -1.55749
H          4.52050        2.66664       -4.90039
H          5.48994        3.80071       -3.96422
H          6.27756        2.64586       -5.02994
H          5.68618       -0.42191       -3.03781
H          4.64477        0.12690       -4.35744
H          6.39532        0.24529       -4.50003
H         -2.07787       -1.51722       -5.15583
H          1.09917        1.13049       -5.61512
H         -0.74926       -0.44080       -5.57421
H         -1.91562        0.03572       -4.33787
H          1.73189        0.00606       -4.40879
H          2.46129        1.59484       -4.59681
