111
-148.55521048
P         -2.59444        2.03477        0.78118
P          0.14159        0.44300        0.44118
C         -1.49411        1.80336        2.20624
C         -0.28589        1.15999        2.04095
C         -3.47758        3.66040        0.84686
C         -2.87565        4.66415       -0.11203
C         -1.86271        2.26135        3.45512
H         -2.81751        2.74327        3.58632
C         -1.01325        2.08351        4.53356
H         -1.30075        2.44193        5.50851
C          0.19990        1.44481        4.36316
H          0.85986        1.30365        5.20323
C          0.56190        0.97594        3.11327
H          1.49613        0.45641        2.96690
Pd        -1.30396        1.46791       -1.04556
Cl        -2.96288        2.27435       -2.32267
Cl        -0.03308        0.67781       -2.72376
C         -4.93433        3.26578        0.54126
C         -4.03615        0.87549        0.74738
H         -1.82124        4.84314        0.11135
H         -2.93536        4.30424       -1.13975
H         -3.39963        5.62177       -0.06842
H         -5.10339        3.35453       -0.54081
H         -5.63170        3.97720        1.00934
H         -4.07314        0.46664       -0.27138
C         -5.23707        1.80823        0.99377
C         -3.87596       -0.23221        1.76559
H         -3.39181        4.02030        1.87983
H         -5.47639        1.80047        2.06605
H         -6.13407        1.41876        0.48875
H         -4.73920       -0.90176        1.76741
H         -2.98538       -0.82987        1.56083
H         -3.77065        0.17833        2.77158
C         -1.13449       -3.93320        0.32539
C         -0.98083       -3.28073        1.57799
C         -0.57139       -1.95747        1.58196
C         -0.40077       -1.26565        0.41148
C         -0.67485       -1.85611       -0.79316
C         -1.08221       -3.17499       -0.87376
O         -1.25433       -5.34547        0.26696
C         -1.25246       -3.95389        2.93400
H         -0.37522       -1.45108        2.51101
H         -0.55267       -1.26832       -1.68604
C         -1.46139       -3.72095       -2.25995
C          4.53575        0.76910       -0.71671
C          3.79507       -0.39869       -1.03811
C          2.46032       -0.44459       -0.67523
C          1.87911        0.57121        0.03701
C          2.61756        1.65063        0.44624
C          3.96216        1.75776        0.12766
O          5.81191        0.98157       -1.29845
C          4.37816       -1.62141       -1.76646
H          1.84930       -1.28252       -0.96310
H          2.12798        2.41883        1.02049
C          4.75187        2.93332        0.72876
C          0.08332       -4.22569        3.64514
C         -2.11131       -3.01651        3.81181
C         -2.03409       -5.27100        2.78758
C         -2.22551       -5.05327       -2.17553
C         -2.38998       -2.71021       -2.97034
C         -0.18661       -3.90905       -3.09940
C          0.00167       -5.99802        0.18126
H         -0.08074       -4.68345        4.62032
H          0.71018       -4.89675        3.06094
H          0.63857       -3.30071        3.79781
H         -3.04266       -2.76356        3.30636
H         -2.36359       -3.49464        4.75794
H         -1.59166       -2.08896        4.04610
H         -2.29947       -5.68089        3.76181
H         -2.95248       -5.11203        2.22349
H         -1.44694       -6.02166        2.26384
H         -1.59681       -5.84354       -1.77225
H         -3.09627       -4.95619       -1.52803
H         -2.56691       -5.37350       -3.15962
H         -3.26263       -2.49181       -2.35546
H         -1.88254       -1.76993       -3.17921
H         -2.74017       -3.10716       -3.92270
H          0.49085       -4.62150       -2.63239
H         -0.42756       -4.27766       -4.09606
H          0.34811       -2.96636       -3.21116
H         -0.15521       -7.07603        0.13904
H          0.53044       -5.67562       -0.71434
H          0.60859       -5.75634        1.05234
C          5.74363        1.66801       -2.53725
C          3.92584       -2.91387       -1.04916
C          3.85965       -1.64580       -3.21402
C          5.91641       -1.62211       -1.76781
C          4.41863        3.05961        2.23225
C          6.27373        2.73214        0.62325
C          4.35464        4.23557        0.01441
H          4.20124       -2.88526        0.00468
H          2.84853       -3.05869       -1.11227
H          4.39546       -3.79007       -1.49548
H          4.22876       -2.52238       -3.74574
H          2.77066       -1.67277       -3.23645
H          4.17937       -0.76170       -3.76188
H          6.30848       -2.53983       -2.20558
H          6.31065       -0.78859       -2.34416
H          6.30149       -1.53767       -0.75222
H          3.37441        3.32032        2.39607
H          4.61699        2.12149        2.74987
H          5.02342        3.83598        2.70018
H          6.81183        3.52630        1.14030
H          6.56686        1.77977        1.06361
H          6.60135        2.73478       -0.41357
H          4.58906        4.18959       -1.04727
H          4.88328        5.08904        0.43818
H          3.28542        4.42173        0.11033
H          5.29592        2.65026       -2.39649
H          6.75012        1.78479       -2.93959
H          5.13617        1.10476       -3.24358
