105
-153.06460038
Cl        -0.08918        1.83494        3.11160
Pd        -0.44803        1.31107        0.94862
P         -1.11605        0.50763       -1.16131
N         -0.73914       -1.02041       -1.95207
C          0.20406       -1.99075       -1.61195
C          0.34775       -2.47812       -0.28792
C          1.30910       -3.47669       -0.02185
C          1.41798       -4.03778        1.37700
C          2.67081       -4.89114        1.63337
C          2.93878       -5.84332        0.46528
C          3.13693       -5.05401       -0.83640
C          2.09331       -3.98875       -1.06020
C          1.90815       -3.51699       -2.35345
C          0.97966       -2.54811       -2.62735
H          0.85356       -2.18724       -3.63323
H          2.51473       -3.91868       -3.14747
H          4.12510       -4.57901       -0.83381
H          3.80795       -6.48345        0.67338
H          3.53766       -4.23194        1.76826
H          1.39316       -3.20914        2.09274
C         -0.65555       -2.12727        0.74714
C         -0.24461       -1.52254        1.96572
C         -1.18549       -1.37922        2.98961
C         -2.48228       -1.78824        2.82048
C         -2.90691       -2.36811        1.63154
C         -4.34236       -2.82700        1.53923
C         -4.79432       -3.20066        0.11875
C         -3.71436       -4.01717       -0.59547
C         -2.40698       -3.21755       -0.69499
C         -1.99263       -2.54172        0.59018
H         -1.59274       -3.87083       -1.03273
H         -4.05786       -4.33286       -1.59079
H         -4.99387       -2.28724       -0.45500
H         -4.99133       -2.04420        1.95138
H         -3.19241       -1.66209        3.62020
H         -0.88221       -0.91195        3.91006
N          1.05200       -1.02123        2.15642
P          1.62253        0.21045        1.03201
C          2.61986       -0.32164       -0.34605
C          2.39466        0.25031       -1.57331
C          3.19787       -0.09211       -2.64544
C          4.23279       -1.00450       -2.48696
C          4.46272       -1.54490       -1.22814
C          3.65653       -1.20265       -0.15724
H          3.82824       -1.61662        0.82372
H          5.27613       -2.23683       -1.09224
C          5.10185       -1.37183       -3.63843
H          3.02187        0.34543       -3.61308
H          1.58575        0.95203       -1.68620
C          2.53976        1.51346        1.85899
C          3.24809        1.23954        3.00413
C          3.95356        2.25017        3.63205
C          3.96105        3.53683        3.11004
C          3.24015        3.79153        1.95112
C          2.53625        2.77987        1.32344
H          1.97927        2.97404        0.41988
H          3.22978        4.78855        1.54500
C          4.69285        4.63270        3.80361
H          4.50133        2.04520        4.53597
H          3.25160        0.23758        3.40173
H          1.20123       -0.59467        3.06168
H         -1.02657       -0.94219       -2.91954
C         -0.62382        1.85425       -2.25165
C         -0.86795        3.15912       -1.89670
C         -0.47190        4.19099       -2.72549
C          0.16877        3.92396       -3.92731
C          0.41169        2.60172       -4.27205
C          0.01104        1.57304       -3.43936
H          0.21275        0.54941       -3.70613
H          0.92085        2.38287       -5.19515
C          0.62524        5.03383       -4.80900
H         -0.65654        5.21293       -2.44137
H         -1.36998        3.36534       -0.96692
C         -2.90988        0.54277       -1.07681
C         -3.60743        0.78245       -2.23690
C         -4.99083        0.80225       -2.21749
C         -5.68341        0.59266       -1.03284
C         -4.96102        0.34393        0.12549
C         -3.57939        0.31068        0.09965
H         -3.01694        0.11451        0.99798
H         -5.48816        0.17775        1.04921
C         -7.17214        0.58974       -1.01078
H         -5.54107        0.98375       -3.12487
H         -3.06648        0.95377       -3.15450
Cl        -2.21778        2.70946        0.92142
H          3.14173       -5.73532       -1.69691
H          2.57702       -5.44905        2.57580
H          2.08835       -6.52736        0.35119
H          0.51804       -4.62942        1.58258
H         -3.53197       -4.94463       -0.03828
H         -2.50977       -2.44920       -1.46965
H         -4.47168       -3.68990        2.20349
H         -5.74735       -3.74789        0.14109
H          4.55390       -1.31063       -4.57981
H          5.96134       -0.70338       -3.70431
H          5.47474       -2.39231       -3.53937
H          4.04539        5.13400        4.52428
H          5.56091        4.24846        4.34108
H          5.04809        5.38032        3.09302
H         -0.00492        5.91634       -4.69021
H          1.65139        5.31878       -4.57281
H          0.59010        4.74153       -5.85944
H         -7.55945       -0.42007       -1.15349
H         -7.55141        0.96459       -0.05911
H         -7.57956        1.22182       -1.80101
