87
-129.18164418
P         -1.44108       -0.25682       -0.24348
P          1.83937        0.39919        0.11585
C         -1.08846        0.88252       -1.58754
C          1.63471       -0.79898       -1.22616
C         -0.04129        0.60825       -2.45865
C          0.22382        1.51164       -3.50744
C         -0.57459        2.63489       -3.64768
C         -1.61273        2.88479       -2.77498
C         -1.86688        2.00301       -1.74322
C          2.33929       -1.96988       -1.07302
C          2.19188       -3.00282       -1.97748
C          1.32044       -2.86170       -3.03450
C          0.59144       -1.69812       -3.20688
C          0.75470       -0.63706       -2.29508
Cl         1.32726        0.39438        3.26246
Cl        -1.31958       -1.48016        2.76583
H         -2.22108        3.76625       -2.89466
H         -2.68049        2.18611       -1.06130
H          3.00547       -2.08119       -0.23306
H          2.74801       -3.91719       -1.85062
H         -0.36973        3.32289       -4.45031
H          1.19295       -3.66682       -3.73822
C         -2.45527       -4.35287       -1.92014
C         -2.96480       -3.21601       -2.53229
C         -2.65356       -1.97443       -1.98895
C         -1.84577       -1.88275       -0.87958
C         -1.35116       -3.01397       -0.27489
C         -1.65393       -4.25587       -0.79953
H         -2.69683       -5.31950       -2.32834
C         -3.84880       -3.32493       -3.72452
H         -3.03713       -1.07462       -2.44151
H         -0.74777       -2.92130        0.61325
H         -1.26879       -5.14659       -0.33094
C         -4.91972        1.29842        2.25482
C         -3.77327        2.05723        2.12652
C         -2.71884        1.58824        1.36702
C         -2.82061        0.37069        0.73539
C         -3.96044       -0.38811        0.86413
C         -5.02669        0.06161        1.63368
H         -5.74380        1.66199        2.84476
H         -3.69860        3.01264        2.61957
H         -1.81808        2.16927        1.25854
H         -4.02223       -1.34290        0.37026
C         -6.26597       -0.75314        1.75722
C          5.90307       -0.13299        2.09876
C          5.70135        0.89436        1.19846
C          4.46496        1.05514        0.60145
C          3.44020        0.19108        0.91033
C          3.64046       -0.83485        1.80494
C          4.87809       -1.01552        2.41038
H          6.86226       -0.25445        2.57261
H          6.50503        1.57298        0.96390
H          4.29201        1.85575       -0.09908
H          2.82372       -1.49187        2.05469
C          5.07605       -2.10198        3.40791
C          1.00549        4.76452       -0.83141
C          1.83542        4.03718       -1.66227
C          2.10847        2.71223       -1.37760
C          1.54605        2.12814       -0.26758
C          0.74960        2.86068        0.58258
C          0.45930        4.19133        0.30865
H          0.77765        5.79141       -1.06129
H          2.25893        4.49710       -2.54001
H          2.73905        2.12414       -2.02502
H          0.37920        2.40474        1.48490
C         -0.44890        4.96788        1.19558
Pd         0.09554       -0.27792        1.51237
C          1.34307        1.28780       -4.46395
C         -0.34823       -1.60119       -4.35893
H          1.92430        2.20057       -4.60258
H          2.02510        0.51481       -4.10800
H          0.96482        0.98067       -5.43977
H         -0.91996       -2.52331       -4.47164
H         -1.06194       -0.78742       -4.22749
H          0.19387       -1.42820       -5.28934
H         -3.52225       -4.13155       -4.38256
H         -4.87806       -3.52874       -3.42598
H         -3.84395       -2.40134       -4.30532
H         -6.03636       -1.81960        1.74272
H         -6.78670       -0.53990        2.69181
H         -6.95079       -0.54441        0.93411
H          4.72923       -1.78817        4.39342
H          4.52127       -2.99809        3.12602
H          6.12866       -2.37586        3.49181
H         -0.44115        4.57099        2.21180
H         -0.14802        6.01521        1.24640
H         -1.47514        4.92869        0.82733
