111
-148.54827855
P         -1.99295        2.58635        0.90396
P         -0.25573       -0.04104        0.51167
C         -1.27151        1.75803        2.34332
C         -0.50683        0.62653        2.16874
C         -1.57554        4.38965        1.01135
C         -0.95457        4.90214       -0.26929
C         -1.42285        2.29955        3.60417
H         -2.00166        3.19971        3.73124
C         -0.81148        1.69941        4.69128
H         -0.93219        2.12022        5.67615
C         -0.03251        0.57297        4.51180
H          0.45682        0.11356        5.35484
C          0.12924        0.04216        3.24479
H          0.76506       -0.81465        3.08427
Pd        -1.44417        1.32861       -0.95777
Cl        -2.29083        2.93660       -2.26827
Cl        -0.64440        0.07324       -2.64053
C         -2.93081        5.04318        1.34998
C         -3.84281        2.68197        0.93375
H         -1.67293        4.85516       -1.08865
H         -0.63383        5.94218       -0.17397
H         -0.08896        4.30371       -0.55922
H         -2.96386        6.05842        0.92837
H         -3.02457        5.17249        2.43812
H         -4.18942        2.15525        0.03372
C         -4.12328        4.19501        0.82737
C         -4.41755        2.03131        2.17366
H         -0.86630        4.49114        1.84434
H         -5.04316        4.43787        1.37881
H         -4.32661        4.46312       -0.21984
H         -4.09512        2.55814        3.07277
H         -5.51001        2.04328        2.16216
H         -4.09136        0.99244        2.26425
C         -0.96244       -4.55134        0.27965
C         -1.19401       -3.87248        1.50278
C         -0.97991       -2.50493        1.54608
C         -0.61928       -1.80298        0.42383
C         -0.52357       -2.44316       -0.78459
C         -0.71989       -3.80749       -0.90201
O         -0.93851       -5.97109        0.24714
C         -1.62923       -4.60490        2.78183
H         -1.09044       -1.96909        2.47064
H         -0.29914       -1.84997       -1.65175
C         -0.64084       -4.45624       -2.29320
C          3.94251        1.05425       -0.85705
C          3.53913       -0.30538       -0.89644
C          2.25570       -0.61955       -0.48474
C          1.41876        0.34290        0.01402
C          1.83996        1.63949        0.15728
C          3.11294        2.02169       -0.23303
O          5.15598        1.45628       -1.47584
C          4.44616       -1.43195       -1.41556
H          1.88745       -1.62657       -0.56121
H          1.14877        2.35293        0.57274
C          3.56311        3.47294       -0.00491
C         -2.51811       -5.81735        2.44986
C         -0.38284       -5.05926        3.55629
C         -2.46104       -3.67169        3.69100
C         -1.12298       -3.47036       -3.38216
C          0.81587       -4.84133       -2.59285
C         -1.54773       -5.69714       -2.38042
C          0.35086       -6.53233        0.45936
H         -1.97285       -6.56375        1.87741
H         -2.87989       -6.29866        3.35812
H         -3.38195       -5.51016        1.86132
H          0.23995       -4.20460        3.81964
H         -0.66052       -5.57148        4.47716
H          0.22303       -5.73998        2.96314
H         -1.85524       -2.86793        4.10693
H         -3.28838       -3.22799        3.13776
H         -2.87930       -4.22386        4.53231
H         -2.10704       -3.07227       -3.13650
H         -0.43650       -2.63386       -3.50313
H         -1.19434       -3.96665       -4.34963
H          1.20172       -5.53575       -1.85022
H          0.90189       -5.31192       -3.57189
H          1.45552       -3.95942       -2.58653
H         -1.22139       -6.47665       -1.69670
H         -2.57542       -5.43942       -2.12665
H         -1.54162       -6.11734       -3.38583
H          0.64720       -7.11177       -0.41479
H          1.08410       -5.74502        0.63918
H          0.31962       -7.20311        1.31785
C          5.01449        1.80985       -2.84602
C          4.13790       -2.75897       -0.68420
C          4.19444       -1.62845       -2.91836
C          5.93147       -1.11799       -1.16065
C          3.20806        4.31747       -1.23800
C          2.85412        4.07658        1.22911
C          5.07663        3.54474        0.26746
H          4.85719       -3.52936       -0.96119
H          4.18886       -2.62622        0.39614
H          3.14984       -3.14083       -0.93514
H          4.81363       -2.43157       -3.31708
H          3.15091       -1.88184       -3.10399
H          4.41712       -0.72211       -3.47663
H          6.10801       -0.93339       -0.10154
H          6.56620       -1.94763       -1.47100
H          6.25188       -0.23649       -1.70981
H          3.72643        3.95886       -2.12372
H          2.13885        4.27413       -1.44145
H          3.48200        5.36150       -1.08842
H          2.98297        3.43677        2.10176
H          3.26391        5.05730        1.46957
H          1.78757        4.21021        1.05747
H          5.34406        2.91584        1.11595
H          5.38675        4.56537        0.49019
H          5.65045        3.20682       -0.59203
H          3.96660        1.75959       -3.14482
H          5.39021        2.82106       -3.00178
H          5.60070        1.13021       -3.46405
