72
-108.40392907
Cl        -1.72769        0.75311        2.72646
Cl         0.98968       -0.81229        2.80729
P          1.10788       -1.13032       -0.33335
P         -2.24585        0.08627       -0.33731
C         -3.19212       -1.54495       -0.12102
C         -3.51631       -1.74534        1.36093
C         -4.47480       -1.52176       -0.94475
C         -3.36979        1.59520       -0.03624
C         -4.21428        1.88732       -1.28391
C         -1.47819        0.45117       -2.02360
C         -1.55781       -0.67769       -3.03037
C          1.10704        0.23794       -1.52753
C         -0.06320        0.99907       -1.96184
C          0.42126        2.09872       -2.79899
C          1.86757        2.01559       -2.86387
C          2.28808        0.85830       -2.09687
C         -2.30652       -2.70039       -0.56484
H         -2.61478       -1.71409        1.97276
H         -4.20344       -0.99363        1.73959
H         -5.17696       -0.77812       -0.57193
H         -4.97698       -2.48944       -0.89857
C         -4.30369        1.40478        1.15532
H         -5.00920        2.59684       -1.04811
H         -4.68320        0.98691       -1.67631
H         -2.09871        1.26936       -2.40034
H         -0.88449       -1.48470       -2.75116
H         -1.24106       -0.34174       -4.01991
H         -2.56599       -1.07814       -3.12863
H         -0.20696        2.80221       -3.34891
H          2.52350        2.68048       -3.43040
Pd        -0.46858       -0.27144        1.18026
H          3.31348        0.52383       -1.92645
C         -2.43301        2.76463        0.22974
H         -3.62689        2.33931       -2.08222
H         -3.75902        1.10464        2.04782
H         -4.81632        2.33883        1.38969
H         -5.07489        0.66558        0.94702
H         -1.91353        2.63168        1.17747
H         -1.69063        2.86014       -0.56391
H         -2.98704        3.70364        0.28786
H         -3.98687       -2.71671        1.52157
H         -4.27473       -1.30470       -1.99279
H         -1.36972       -2.69465       -0.01035
H         -2.79414       -3.65787       -0.37375
H         -2.08390       -2.66329       -1.62805
C          2.77863       -1.20559        0.36378
C          3.22666       -2.16670        1.23567
C          4.55304       -1.85982        1.53894
C          4.86280       -0.72257        0.83512
O          3.78285       -0.31073        0.10918
H          2.64999       -2.98598        1.63191
H          5.20510       -2.40613        2.20073
H          5.81805       -0.21240        0.84523
C          0.76597       -2.72370       -1.10214
C          0.76213       -3.91355       -0.41648
C          0.46043       -4.91606       -1.33917
C          0.29298       -4.29467       -2.55228
O          0.47385       -2.94739       -2.41995
H          0.93887       -4.04028        0.63926
H          0.37548       -5.97157       -1.13855
H          0.05022       -4.78604       -3.48631
Fe         1.24697        2.16147       -0.92324
C          2.14842        2.02532        0.92406
C          0.83986        2.63080        1.04003
C          0.81499        3.81476        0.20090
C          2.12504        3.96893       -0.40511
C          2.93540        2.84163        0.02023
H          2.47782        1.11449        1.42743
H          0.04369        2.27443        1.69566
H         -0.01548        4.51842        0.10859
H          2.43908        4.77612       -1.07031
H          3.97629        2.65826       -0.25608
