171
-217.84534013
P         -1.62975        0.41245       -0.34669
P          1.63723       -0.40583       -0.29098
C         -0.86049        1.35371       -1.66687
C          0.89315       -1.37798       -1.60335
C         -0.05095        0.71642       -2.60049
C          0.60818        1.49753       -3.56877
C          0.41078        2.86849       -3.58198
C         -0.41300        3.47805       -2.65907
C         -1.04318        2.71452       -1.69645
C          1.06659       -2.74031       -1.58769
C          0.46036       -3.52804       -2.54617
C         -0.32946       -2.94066       -3.51202
C         -0.51763       -1.56873       -3.54448
C          0.11572       -0.76361       -2.57862
Cl         1.57076        0.45886        2.83150
Cl        -1.59039       -0.49210        2.81068
C         -1.37365       -0.97117       -4.60589
C          1.50258        0.87593       -4.58364
H         -0.56276        4.54498       -2.68539
H         -1.68203        3.18204       -0.96486
H          1.67926       -3.19029       -0.82342
H          0.60287       -4.59623       -2.53645
H          0.91435        3.46064       -4.32744
H         -0.81345       -3.55125       -4.25557
C         -3.91181       -3.24597       -1.69589
C         -2.92759       -3.39025       -0.72647
C         -2.23167       -2.25363       -0.33489
C         -2.50047       -1.04129       -0.91877
C         -3.46657       -0.91627       -1.88679
C         -4.19989       -2.02526       -2.29319
H         -4.48752       -4.10785       -1.97858
H         -1.48580       -2.29863        0.43956
H         -3.65110        0.05745       -2.30794
C         -4.40020        2.89757        2.24817
C         -4.93231        1.85661        1.49755
C         -4.06454        1.12275        0.69930
C         -2.72907        1.43565        0.64570
C         -2.22203        2.47246        1.38908
C         -3.04801        3.21817        2.21943
H         -5.06139        3.46229        2.87800
H         -4.42237        0.28848        0.12301
H         -1.16895        2.69050        1.33399
C          4.32511       -2.85932        2.41657
C          2.96571       -3.14750        2.38655
C          2.16626       -2.41401        1.51984
C          2.70538       -1.41650        0.74609
C          4.04731       -1.13335        0.80266
C          4.88956       -1.85930        1.63469
H          4.96642       -3.41672        3.07290
H          1.10833       -2.60614        1.46224
H          4.43063       -0.32801        0.20229
C          3.96500        3.20145       -1.70237
C          2.94714        3.38272       -0.77483
C          2.23910        2.26128       -0.36194
C          2.52950        1.02643       -0.88567
C          3.52709        0.86528       -1.81565
C          4.27347        1.95848       -2.24067
H          4.55007        4.05232       -1.99881
H          1.46340        2.33809        0.37991
H          3.72465       -0.12356       -2.19348
Pd        -0.01875        0.06142        1.29806
C         -3.90428       -5.16330        0.74442
C         -2.67358       -4.76132       -0.08682
C         -1.44135       -4.72918        0.83671
C         -2.42388       -5.80891       -1.18834
H         -3.75320       -6.13030        1.22385
H         -4.09925       -4.42611        1.52315
H         -4.79447       -5.23321        0.12003
H         -1.23950       -5.71781        1.24862
H         -0.55696       -4.40785        0.28747
H         -1.59526       -4.04985        1.67460
H         -2.19541       -6.78255       -0.75513
H         -3.29535       -5.92916       -1.83039
H         -1.58396       -5.51399       -1.81614
C         -5.13230       -2.95383       -4.43976
C         -5.34372       -1.92484       -3.31257
C         -5.41944       -0.52049       -3.94293
C         -6.67588       -2.21400       -2.59715
H         -5.92056       -2.87699       -5.18850
H         -4.17845       -2.79286       -4.93987
H         -5.14030       -3.97313       -4.05615
H         -6.21582       -0.47231       -4.68546
H         -5.62844        0.23831       -3.18911
H         -4.48551       -0.26349       -4.44192
H         -6.84127       -1.50308       -1.78832
H         -7.51503       -2.14017       -3.28864
H         -6.68253       -3.21520       -2.16745
C         -6.76470        1.10291        3.02978
C         -6.42909        1.52772        1.58890
C         -6.81641        0.37929        0.63585
C         -7.25165        2.77225        1.20686
H         -6.55187        1.90353        3.73726
H         -7.81890        0.84344        3.12524
H         -6.17452        0.23422        3.32109
H         -6.28506       -0.53817        0.88848
H         -7.88387        0.16804        0.69738
H         -6.58953        0.63757       -0.39838
H         -7.00294        3.10262        0.19849
H         -8.31982        2.55796        1.23795
H         -7.05936        3.60055        1.88761
C         -3.45656        4.89899        4.08687
C         -2.44883        4.35891        3.05369
C         -2.04356        5.50492        2.11135
C         -1.20977        3.84529        3.81488
H         -2.99975        5.67214        4.70458
H         -4.32412        5.34206        3.59856
H         -3.79981        4.10423        4.74899
H         -1.32876        5.16193        1.36535
H         -2.91305        5.89462        1.58231
H         -1.58726        6.32534        2.66493
H         -0.42183        3.52857        3.13355
H         -0.79606        4.62299        4.45644
H         -1.47017        2.99274        4.44169
C          1.94796       -5.43011        2.36061
C          2.33341       -4.24200        3.25758
C          1.07660       -3.68505        3.95714
C          3.30672       -4.73594        4.34564
H          1.26247       -5.11814        1.57464
H          2.83045       -5.85337        1.88118
H          1.46493       -6.21779        2.93854
H          1.32382       -2.80081        4.54414
H          0.30772       -3.40343        3.23977
H          0.64302       -4.42616        4.62818
H          2.82422       -5.46929        4.99169
H          4.18146       -5.21472        3.90638
H          3.64203       -3.90978        4.97246
C          6.72376       -1.09080        3.15709
C          6.39299       -1.56357        1.73012
C          6.81854       -0.46319        0.73757
C          7.18868       -2.84167        1.40633
H          6.15295       -0.19667        3.40708
H          6.48263       -1.85721        3.89282
H          7.78319       -0.85449        3.25481
H          6.59571       -0.75585       -0.28835
H          6.30783        0.47620        0.94878
H          7.89027       -0.27604        0.80271
H          8.26140       -2.65193        1.44024
H          6.96990       -3.63740        2.11727
H          6.94176       -3.20588        0.40923
C          2.45739        5.77849       -1.35578
C          2.66768        4.77866       -0.20278
C          3.86654        5.21881        0.65520
C          1.40226        4.78238        0.67572
H          2.21014        6.76838       -0.97265
H          3.35241        5.87559       -1.96871
H          1.64277        5.45424       -2.00218
H          3.69685        6.20486        1.08725
H          4.03360        4.51592        1.47123
H          4.77898        5.26457        0.06143
H          1.52553        4.13912        1.54654
H          1.18487        5.78696        1.03821
H          0.53838        4.43696        0.10881
C          5.28585        2.80855       -4.38431
C          5.45200        1.81896       -3.21499
C          5.54306        0.39336       -3.79347
C          6.75913        2.12843       -2.46296
H          6.10066        2.70342       -5.10050
H          4.35035        2.63261       -4.91324
H          5.28406        3.84069       -4.03669
H          5.72364       -0.33959       -3.00746
H          4.62511        0.12212       -4.31421
H          6.36362        0.31713       -4.50677
H          7.62205        2.02807       -3.12105
H          6.75468        3.14390       -2.06808
H          6.89250        1.44550       -1.62466
H         -0.83155       -0.90028       -5.54982
H          1.82351       -0.12023       -4.27610
H         -1.70848        0.03014       -4.33174
H         -2.26211       -1.57935       -4.77552
H          2.39888        1.47848       -4.73075
H          0.99736        0.78682       -5.54630
