111
-148.54908814
P         -2.66171        1.98022       -0.41165
P          0.03066        0.47195        0.32607
C         -1.93124        2.18689        1.23600
C         -0.73037        1.57747        1.52768
C         -3.46511        3.55068       -0.97750
C         -2.61280        4.30971       -1.97076
C         -2.56579        2.94683        2.19812
H         -3.51619        3.40368        1.97675
C         -1.98748        3.10254        3.44627
H         -2.48285        3.69596        4.19731
C         -0.77850        2.49761        3.73163
H         -0.32959        2.61711        4.70396
C         -0.14974        1.72777        2.76964
H          0.78462        1.23103        2.98055
Pd        -1.08340        0.84827       -1.67151
Cl        -2.10885        1.56956       -3.52489
Cl         0.64821       -0.20045       -2.65681
C         -4.81908        3.05819       -1.51888
C         -4.11853        0.83716       -0.45015
H         -2.44521        3.72026       -2.87198
H         -3.09100        5.24346       -2.27535
H         -1.63372        4.55062       -1.55017
H         -4.71170        2.83887       -2.59020
H         -5.57326        3.85729       -1.45362
H         -3.94223        0.14874       -1.28758
C         -5.29477        1.77864       -0.77221
C         -4.25336        0.07571        0.85082
H         -3.62122        4.15606       -0.07573
H         -5.78543        2.06551        0.16797
H         -6.06249        1.24715       -1.35469
H         -5.12563       -0.58203        0.84091
H         -3.37018       -0.53747        1.04281
H         -4.36413        0.76238        1.69210
C         -1.24608       -3.81282        1.21333
C         -0.56126       -3.51240        0.00830
C         -0.20386       -2.19704       -0.22943
C         -0.43041       -1.21948        0.70201
C         -0.99590       -1.52409        1.91229
C         -1.38398       -2.81815        2.21511
O         -1.82646       -5.09553        1.40065
C         -0.23886       -4.57492       -1.05358
H          0.23902       -1.90488       -1.16493
H         -1.14545       -0.72751        2.61914
C         -1.97581       -3.11499        3.60195
C          4.54162        1.02061        0.07254
C          3.67689        1.99204       -0.49386
C          2.30947        1.80816       -0.36710
C          1.80227        0.67906        0.21986
C          2.63174       -0.31485        0.66939
C          4.00814       -0.19330        0.57591
O          5.93503        1.27914        0.16693
C          4.20045        3.23574       -1.22890
H          1.61592        2.54729       -0.73060
H          2.18470       -1.19545        1.09686
C          4.89442       -1.36361        1.03054
C          0.01028       -5.94942       -0.40682
C         -1.40085       -4.66041       -2.05468
C          1.04818       -4.20132       -1.82397
C         -1.38565       -2.15839        4.66332
C         -3.49875       -2.91688        3.55955
C         -1.63869       -4.54781        4.05282
C         -3.16413       -5.20004        0.92898
H         -0.88096       -6.32103        0.09243
H          0.30107       -6.68727       -1.15414
H          0.80614       -5.88557        0.33454
H         -2.32799       -4.94007       -1.56020
H         -1.56156       -3.69814       -2.54039
H         -1.19572       -5.39925       -2.82889
H          0.90814       -3.31462       -2.44025
H          1.87025       -4.01373       -1.13441
H          1.34855       -5.00934       -2.49055
H         -1.71637       -1.13209        4.51024
H         -1.70207       -2.44936        5.66473
H         -0.29635       -2.17608        4.63823
H         -3.96262       -3.57630        2.83005
H         -3.94615       -3.12223        4.53171
H         -3.74672       -1.89200        3.28490
H         -2.00147       -4.73652        5.06290
H         -2.09215       -5.28716        3.39741
H         -0.56129       -4.70934        4.04354
H         -3.49631       -4.24858        0.51160
H         -3.22292       -5.97316        0.16308
H         -3.82030       -5.48538        1.75109
C          6.32286        1.92439        1.37323
C          4.38182        4.38324       -0.22422
C          5.53299        2.93811       -1.94032
C          3.19958        3.68414       -2.31848
C          5.19843       -1.21878        2.52909
C          4.17483       -2.71179        0.79775
C          6.20584       -1.41355        0.22546
H          4.73945        5.28457       -0.72137
H          3.43738        4.61953        0.26546
H          5.09889        4.11942        0.54954
H          6.31683        2.69311       -1.22785
H          5.42389        2.09400       -2.62045
H          5.86998        3.79849       -2.51793
H          2.27851        4.07158       -1.88571
H          3.62417        4.47931       -2.93079
H          2.94624        2.85337       -2.97668
H          4.27684       -1.21672        3.11072
H          5.81927       -2.04145        2.88294
H          5.72252       -0.28862        2.73627
H          4.84353       -3.54789        1.00107
H          3.31054       -2.82837        1.44984
H          3.83966       -2.79508       -0.23554
H          6.81434       -0.53031        0.40257
H          5.99789       -1.46691       -0.84268
H          6.80140       -2.28399        0.49953
H          5.45065        2.11716        1.99914
H          7.02697        1.29388        1.91584
H          6.81869        2.86656        1.14005
