59
-75.79847845
Cl         1.71553        0.46383        2.33913
P          1.61220        0.06357       -0.85428
P         -1.55939       -0.23166       -0.74606
C          0.60762       -0.02221       -2.40259
H          0.29689        0.99438       -2.65746
H          1.24222       -0.38543       -3.21696
C         -0.59413       -0.89506       -2.17526
H         -0.29540       -1.92025       -1.94583
H         -1.24961       -0.93501       -3.05070
C          2.90782       -1.26232       -0.79030
H          2.91458       -1.72962       -1.78238
C          2.68946        1.56706       -0.75941
H          2.61117        1.93102        0.27252
C         -2.97329       -1.33129       -0.28068
H         -3.05902       -1.27746        0.81127
C         -2.50471        1.25751       -1.31843
H         -2.33621        1.28189       -2.40348
C          4.21020       -0.47382       -0.55063
H          4.43950       -0.49355        0.52379
H          5.05788       -0.97673       -1.04037
C          4.09528        1.00104       -1.02015
H          4.30792        1.06132       -2.09652
H          4.85753        1.62770       -0.53227
C         -4.17978       -0.64185       -0.94139
H         -4.31558       -1.05626       -1.94992
H         -5.10512       -0.88188       -0.39570
C         -3.97474        0.89519       -1.03409
H         -4.28958        1.35479       -0.08979
H         -4.63093        1.33213       -1.80190
C          2.64033       -2.31134        0.28561
H          2.53201       -1.80399        1.25313
H          3.53267       -2.94402        0.39169
C          2.26315        2.65995       -1.73205
H          2.33023        2.26964       -2.75601
H          1.20061        2.88723       -1.57608
C         -2.74874       -2.77449       -0.71415
H         -2.64584       -2.80596       -1.80672
H         -1.78362       -3.12173       -0.32125
C         -2.00682        2.55870       -0.68727
H         -0.92978        2.64529       -0.88233
H         -2.46405        3.41014       -1.21059
C          1.42433       -3.18013        0.00832
H          1.50660       -3.67997       -0.95861
H          0.50995       -2.58787       -0.00899
H          1.29181       -3.95320        0.76870
C          3.08980        3.93011       -1.59736
H          3.02003        4.33950       -0.58777
H          2.76241        4.70799       -2.29101
H          4.14622        3.73950       -1.79459
C         -3.86038       -3.70973       -0.26219
H         -4.82421       -3.41151       -0.67856
H         -3.96312       -3.70168        0.82459
H         -3.67702       -4.74245       -0.56757
C         -2.26136        2.69055        0.80838
H         -1.90767        1.81601        1.35260
H         -1.75671        3.56222        1.23170
H         -3.32303        2.79958        1.03408
Cl        -1.51238       -0.26673        2.42622
Pd         0.08754       -0.00584        0.87339
