171
-217.84626562
P         -1.60830        0.42575       -0.36458
P          1.60549       -0.41881       -0.34280
C         -0.87107        1.37822       -1.69486
C          0.89060       -1.34492       -1.70463
C         -0.07229        0.76359       -2.65223
C          0.56253        1.56607       -3.61973
C          0.34222        2.93343       -3.61609
C         -0.47717        3.51941       -2.67464
C         -1.07468        2.73635       -1.70646
C          1.09349       -2.70299       -1.73597
C          0.50863       -3.46988       -2.72451
C         -0.29934       -2.86843       -3.66596
C         -0.51924       -1.50118       -3.65007
C          0.10444       -0.71450       -2.66257
Cl         1.49794        0.42842        2.87465
Cl        -1.62143       -0.43797        2.79844
C         -1.39992       -0.89097       -4.68395
C          1.45179        0.97086       -4.65490
H         -0.64654        4.58364       -2.69008
H         -1.70335        3.18592       -0.95454
H          1.71128       -3.16570       -0.98308
H          0.67909       -4.53357       -2.75592
H          0.82279        3.54138       -4.36401
H         -0.77152       -3.46396       -4.42908
C         -3.92115       -3.25535       -1.60260
C         -2.94447       -3.37322       -0.62076
C         -2.22487       -2.23502       -0.28540
C         -2.48142       -1.03847       -0.90639
C         -3.44899       -0.93627       -1.87484
C         -4.19317       -2.05143       -2.24239
H         -4.50366       -4.11722       -1.86805
H         -1.46940       -2.27725        0.48032
H         -3.62560        0.02458       -2.32767
C         -4.34208        2.94059        2.23999
C         -4.90022        1.97405        1.41047
C         -4.04239        1.23097        0.61180
C         -2.68956        1.45760        0.63477
C         -2.15514        2.42165        1.45242
C         -2.97210        3.17699        2.28281
H         -4.98823        3.51474        2.87553
H         -4.43273        0.45371       -0.02163
H         -1.08796        2.56658        1.46550
C          4.36526       -2.99598        2.17167
C          2.99781       -3.24048        2.21869
C          2.16897       -2.45813        1.42467
C          2.69410       -1.46223        0.63865
C          4.04558       -1.22629        0.61568
C          4.91324       -1.99339        1.37994
H          5.01346       -3.60191        2.77633
H          1.10335       -2.60887        1.42665
H          4.42802       -0.42713        0.00521
C          3.88361        3.32414       -1.44924
C          2.89721        3.40259       -0.47315
C          2.18364        2.24804       -0.18265
C          2.46292        1.07247       -0.83358
C          3.44339        1.00871       -1.79231
C          4.17778        2.14247       -2.11970
H          4.45533        4.20107       -1.68718
H          1.41274        2.25855        0.56825
H          3.63689        0.06325       -2.27000
Pd        -0.01580       -0.05093        1.27633
C         -3.63849       -5.80032       -0.28809
C         -2.64487       -4.69132        0.10691
C         -2.74506       -4.46956        1.62895
C         -1.22335       -5.15260       -0.25686
H         -3.57355       -6.02591       -1.35231
H         -3.42622       -6.72072        0.25581
H         -4.66285       -5.50795       -0.05770
H         -2.56391       -5.39740        2.17117
H         -2.01728       -3.73716        1.97523
H         -3.73648       -4.10755        1.90012
H         -0.95942       -6.06753        0.27321
H         -1.14710       -5.34781       -1.32595
H         -0.48724       -4.39097       -0.00363
C         -6.67145       -2.21526       -2.53204
C         -5.33833       -1.96894       -3.26173
C         -5.14100       -3.03611       -4.35518
C         -5.39976       -0.58509       -3.93803
H         -6.82278       -1.47498       -1.74646
H         -7.51243       -2.15254       -3.22239
H         -6.69034       -3.20139       -2.06916
H         -4.18185       -2.90632       -4.85490
H         -5.16782       -4.04268       -3.94012
H         -5.92489       -2.96938       -5.10944
H         -6.19807       -0.55232       -4.67935
H         -5.59783        0.20076       -3.20952
H         -4.46506       -0.35498       -4.44819
C         -7.20103        2.60574        2.30041
C         -6.40561        1.67636        1.36414
C         -6.64414        0.21842        1.80040
C         -6.91898        1.87510       -0.07455
H         -7.06499        3.65101        2.02342
H         -8.26742        2.38650        2.24792
H         -6.88971        2.47839        3.33703
H         -7.70725       -0.02139        1.79728
H         -6.14266       -0.48188        1.13319
H         -6.26205        0.05118        2.80720
H         -7.99078        1.68730       -0.13597
H         -6.73450        2.89490       -0.41168
H         -6.42299        1.19851       -0.76947
C         -1.55400        5.24115        2.42270
C         -2.32896        4.19154        3.23886
C         -1.35939        3.44835        4.17841
C         -3.38272        4.91776        4.09620
H         -1.10267        5.98884        3.07466
H         -0.75527        4.77705        1.84750
H         -2.21567        5.75420        1.72507
H         -1.88570        2.67962        4.74364
H         -0.56130        2.96008        3.62044
H         -0.89806        4.13517        4.88756
H         -3.94311        4.21239        4.70949
H         -2.90806        5.63310        4.76777
H         -4.08527        5.46852        3.47101
C          2.98418       -5.70087        2.69664
C          2.44313       -4.33190        3.14519
C          0.90258       -4.37712        3.11185
C          2.88389       -4.04293        4.59235
H          2.69055       -5.91198        1.66843
H          4.07205       -5.73123        2.74690
H          2.59753       -6.49971        3.32924
H          0.47545       -3.42099        3.41424
H          0.54055       -4.61875        2.11375
H          0.52201       -5.13904        3.79185
H          3.96862       -4.06003        4.68927
H          2.53456       -3.06058        4.90984
H          2.47710       -4.78459        5.27953
C          6.92273       -1.85030       -0.11311
C          6.41727       -1.68978        1.33294
C          7.21992       -2.64036        2.24135
C          6.65470       -0.24282        1.80505
H          7.99331       -1.65623       -0.17628
H          6.74050       -2.86214       -0.47458
H          6.41923       -1.15873       -0.78756
H          6.90866       -2.54469        3.28140
H          7.09034       -3.67817        1.93483
H          8.28482       -2.41291        2.19396
H          6.27715       -0.10214        2.81760
H          7.71728       -0.00065        1.80306
H          6.14885        0.47326        1.15822
C          3.65218        5.77641        0.04675
C          2.56504        4.70656        0.26652
C          2.45735        4.43640        1.78127
C          1.22496        5.24560       -0.25855
H          3.43398        6.67369        0.62582
H          4.62972        5.40849        0.35817
H          3.71086        6.07150       -1.00055
H          3.37858        3.99399        2.15953
H          2.27669        5.36070        2.32972
H          1.63996        3.75508        2.01194
H          0.93600        6.15765        0.26335
H          1.29290        5.47130       -1.32241
H          0.43254        4.51080       -0.12374
C          5.42361        0.73866       -3.84000
C          5.33349        2.10375       -3.12967
C          6.65586        2.35242       -2.38142
C          5.12866        3.19515       -4.19747
H          5.62586       -0.06235       -3.12943
H          4.49828        0.50730       -4.36628
H          6.23028        0.73690       -4.57295
H          6.65470        3.32639       -1.89312
H          6.81217        1.59448       -1.61386
H          7.50387        2.32107       -3.06528
H          4.17547        3.06368       -4.70804
H          5.13682        4.19114       -3.75687
H          5.91939        3.15937       -4.94669
H         -0.87473       -0.79276       -5.63492
H          1.81492       -0.01185       -4.35093
H         -1.74254        0.09974       -4.38226
H         -2.28335       -1.50717       -4.85295
H          2.32203        1.60398       -4.82975
H          0.92514        0.85873       -5.60349
