111
-148.55664744
P         -2.74171        1.82722       -0.30024
P          0.14873        0.62043        0.17629
C         -1.83437        2.23310        1.21650
C         -0.55204        1.75774        1.38976
C         -3.74842        3.26060       -0.89801
C         -3.08252        3.97182       -2.05564
C         -2.41739        3.01273        2.19505
H         -3.42691        3.36634        2.06437
C         -1.70862        3.32131        3.34337
H         -2.16317        3.93010        4.10783
C         -0.42135        2.84859        3.51200
H          0.12932        3.08643        4.40722
C          0.15661        2.05957        2.53410
H          1.15321        1.66709        2.65953
Pd        -1.17881        0.88137       -1.71022
Cl        -2.70884        1.00075       -3.34536
Cl         0.43360       -0.08448       -2.93795
C         -5.10085        2.60471       -1.23138
C         -4.07123        0.55650       -0.08298
H         -3.68143        4.81711       -2.40240
H         -2.09527        4.34686       -1.77569
H         -2.94785        3.29675       -2.90146
H         -5.09536        2.30436       -2.28834
H         -5.91725        3.33680       -1.13556
H         -3.91493       -0.18341       -0.87954
C         -5.36280        1.35655       -0.34026
C         -3.99948       -0.09826        1.27952
H         -3.85862        3.94090       -0.04411
H         -5.77716        1.67799        0.62517
H         -6.13099        0.70871       -0.78905
H         -4.80384       -0.82460        1.41699
H         -3.04989       -0.61782        1.41884
H         -4.08456        0.64679        2.07265
C         -1.31185       -3.55264        1.26637
C         -0.88005       -3.27868       -0.05848
C         -0.43614       -2.00108       -0.34798
C         -0.35121       -1.04066        0.62421
C         -0.63793       -1.33859        1.93022
C         -1.07859       -2.59993        2.29424
O         -2.05222       -4.73062        1.54272
C         -0.88340       -4.30961       -1.19858
H         -0.16751       -1.72895       -1.35418
H         -0.53382       -0.56340        2.66993
C         -1.28042       -2.88311        3.79182
C          4.69316        0.84555        0.01106
C          3.92658        1.45785       -1.01376
C          2.54526        1.40727       -0.92082
C          1.93193        0.71067        0.08665
C          2.66840        0.02331        1.01621
C          4.05284        0.04254        0.98887
O          6.09587        1.05946        0.07588
C          4.56944        2.17061       -2.21423
H          1.92447        1.90266       -1.64706
H          2.14022       -0.53723        1.76843
C          4.83306       -0.78475        2.02252
C         -1.05862       -5.74923       -0.68581
C         -2.01389       -3.97201       -2.18535
C          0.46938       -4.25472       -1.94269
C         -2.52265       -2.12717        4.29242
C         -1.43746       -4.38440        4.08877
C         -0.04077       -2.39517        4.57385
C         -3.44937       -4.54686        1.38435
H         -0.96315       -6.46989       -1.49764
H         -0.30684       -5.98297        0.06722
H         -2.03778       -5.89020       -0.23427
H         -2.98622       -4.01158       -1.69806
H         -1.88822       -2.96971       -2.59396
H         -2.02646       -4.67432       -3.01830
H          0.52333       -5.02829       -2.70819
H          0.62033       -3.29753       -2.43887
H          1.29579       -4.40888       -1.24949
H         -3.41870       -2.45121        3.76634
H         -2.67874       -2.29717        5.35737
H         -2.41562       -1.05402        4.13689
H         -0.59884       -4.94669        3.67959
H         -1.48098       -4.57028        5.16168
H         -2.34997       -4.78003        3.64921
H         -0.12672       -2.64221        5.63169
H          0.86421       -2.86625        4.19117
H          0.08526       -1.31615        4.50165
H         -3.67211       -4.23436        0.36536
H         -3.96173       -5.48607        1.59383
H         -3.80636       -3.78100        2.07106
C          6.47402        2.20062        0.83527
C          4.77605        3.65457       -1.87635
C          5.91304        1.51983       -2.59065
C          3.65737        2.06836       -3.45856
C          5.09610        0.07515        3.26790
C          4.02407       -2.03207        2.44729
C          6.16338       -1.29062        1.43582
H          5.22200        4.18756       -2.71570
H          3.82536        4.13187       -1.63992
H          5.42981        3.77561       -1.01592
H          5.78179        0.45635       -2.78754
H          6.33562        1.98068       -3.48311
H          6.64206        1.62321       -1.79083
H          2.74457        2.64983       -3.33912
H          4.16544        2.44962       -4.34396
H          3.37981        1.03238       -3.65135
H          5.68247        0.95697        3.02119
H          4.15800        0.41325        3.70766
H          5.63973       -0.48972        4.02477
H          4.62562       -2.68772        3.07645
H          3.13942       -1.76228        3.02220
H          3.70621       -2.60380        1.57571
H          6.82610       -0.46551        1.18676
H          5.98787       -1.86435        0.52642
H          6.68671       -1.93083        2.14554
H          5.59161        2.69988        1.23747
H          7.12407        1.89472        1.65483
H          7.02774        2.89406        0.20259
