87
-129.18846121
P         -1.61189       -0.34468       -0.28637
P          1.66501        0.39603       -0.01964
C         -1.30110        0.92989       -1.51808
C          1.49581       -0.68922       -1.44948
C         -0.26561        0.79499       -2.43678
C         -0.02559        1.84332       -3.34680
C         -0.83459        2.96665       -3.31407
C         -1.86107        3.07765       -2.40086
C         -2.08872        2.05526       -1.50119
C          2.27050       -1.82389       -1.47529
C          2.14362       -2.73358       -2.50622
C          1.22615       -2.50410       -3.50833
C          0.42998       -1.37163       -3.50120
C          0.57155       -0.43479       -2.45894
Cl         1.15025        0.52257        3.19789
Cl        -1.45798       -1.37399        2.73289
H         -2.47795        3.96115       -2.38312
H         -2.88603        2.13644       -0.78124
H          2.97920       -2.00222       -0.68383
H          2.75218       -3.62289       -2.52128
H         -0.64729        3.76472       -4.01232
H          1.11479       -3.21533       -4.30915
C         -1.76587       -4.48653       -2.14118
C         -0.91730       -4.25386       -1.06749
C         -0.90658       -2.98851       -0.49381
C         -1.69835       -1.98515       -1.00204
C         -2.53115       -2.22047       -2.07057
C         -2.56914       -3.47978       -2.64021
H         -1.79130       -5.46682       -2.58569
C         -0.05694       -5.33684       -0.51895
H         -0.26839       -2.78920        0.35042
H         -3.13625       -1.41661       -2.45974
H         -3.21994       -3.67252       -3.47728
C         -5.35765        0.65296        2.10552
C         -5.35006       -0.44857        1.27266
C         -4.21771       -0.75189        0.54061
C         -3.10361        0.04701        0.64618
C         -3.10749        1.14266        1.47876
C         -4.23939        1.46768        2.21605
H         -6.23522        0.88557        2.68436
H         -6.22354       -1.07537        1.19779
H         -4.19398       -1.61488       -0.10421
H         -2.22175        1.74971        1.56719
C         -4.22653        2.63436        3.13969
C          5.37429       -0.67881        2.39526
C          5.32962        0.51241        1.69827
C          4.20618        0.83904        0.96244
C          3.13743       -0.02579        0.92848
C          3.17931       -1.21240        1.62417
C          4.30293       -1.56060        2.36382
H          6.24394       -0.93071        2.97797
H          6.16689        1.19010        1.73237
H          4.15415        1.77009        0.42250
H          2.32613       -1.87063        1.60965
C          4.32721       -2.82636        3.14590
C          1.50002        4.81293       -1.06593
C          2.40390        3.98926       -1.70819
C          2.46242        2.64562       -1.38728
C          1.62251        2.14248       -0.42189
C          0.73284        2.96320        0.23201
C          0.64630        4.31101       -0.09310
H          1.44989        5.85843       -1.31809
H          3.05829        4.39097       -2.46434
H          3.14812        1.98367       -1.89251
H          0.09558        2.55675        0.99870
C         -0.32432        5.19292        0.60996
Pd        -0.04994       -0.19158        1.44236
C          1.07905        1.77084       -4.34314
C         -0.55818       -1.17194       -4.59765
H          1.79090        0.98299       -4.09459
H          0.68920        1.57099       -5.34194
H          1.63066        2.71124       -4.38080
H         -1.30575       -0.42413       -4.33098
H         -0.06322       -0.84391       -5.51245
H         -1.08749       -2.10015       -4.81738
H          0.87408       -4.93203       -0.11898
H         -0.56740       -5.86646        0.28655
H          0.20276       -6.06320       -1.29036
H         -5.23291        3.02425        3.29859
H         -3.81621        2.35289        4.11047
H         -3.61598        3.44493        2.73887
H          3.77378       -3.61461        2.63333
H          5.34839       -3.18026        3.29415
H          3.87405       -2.68138        4.12754
H         -1.24477        4.65440        0.84130
H          0.09518        5.56112        1.54717
H         -0.59085        6.05496       -0.00317
