111
-148.55670118
P         -2.39203        2.29959        0.64915
P          0.05407        0.30407        0.43558
C         -1.37985        1.96814        2.11005
C         -0.34494        1.06363        2.02348
C         -2.61050        4.11080        0.35442
C         -1.81300        4.55148       -0.85390
C         -1.66882        2.57662        3.31448
H         -2.47842        3.28625        3.37090
C         -0.92439        2.26358        4.43877
H         -1.14884        2.73657        5.38083
C          0.09706        1.33663        4.35682
H          0.66968        1.08420        5.23410
C          0.38485        0.73173        3.14638
H          1.16979       -0.00460        3.07042
Pd        -1.53879        1.04836       -1.08947
Cl        -3.34120        1.64308       -2.28967
Cl        -0.67411       -0.24721       -2.70536
C         -4.13583        4.25794        0.19911
C         -4.15948        1.79139        0.88684
H         -1.94358        5.61807       -1.05184
H         -0.74592        4.35869       -0.71750
H         -2.13239        4.00804       -1.74546
H         -4.38668        4.20927       -0.86952
H         -4.46122        5.25477        0.53351
H         -4.44042        1.24959       -0.02598
C         -4.90214        3.13854        0.95864
C         -4.34131        0.91105        2.10604
H         -2.26245        4.61956        1.26282
H         -5.01648        3.42411        2.01331
H         -5.92634        3.03127        0.57031
H         -3.71382        0.01930        2.05207
H         -4.06651        1.44549        3.01650
H         -5.37957        0.58929        2.21484
C         -0.87759       -4.14342        0.69257
C         -1.92640       -3.19809        0.55664
C         -1.59498       -1.85431        0.51680
C         -0.28591       -1.44944        0.51073
C          0.73470       -2.36334        0.52867
C          0.47292       -3.72239        0.58520
O         -1.17855       -5.50243        0.97466
C         -3.40549       -3.60254        0.45571
H         -2.36234       -1.10068        0.48404
H          1.74587       -1.99659        0.50364
C          1.64714       -4.71342        0.55894
C          4.34356        1.12964       -0.90978
C          3.44499        0.43679       -1.75899
C          2.14695        0.24407       -1.31971
C          1.74482        0.64300       -0.07234
C          2.63737        1.23360        0.78486
C          3.95293        1.45603        0.41362
O          5.61974        1.52265       -1.39435
C          3.84573       -0.07444       -3.15187
H          1.41123       -0.20126       -1.96458
H          2.28985        1.53318        1.75634
C          4.92710        2.05924        1.43871
C         -4.02508       -3.62773        1.86082
C         -4.18587       -2.58844       -0.41310
C         -3.55909       -4.97858       -0.21727
C          1.24117       -6.03862       -0.11158
C          2.82611       -4.14032       -0.25955
C          2.12429       -4.97224        1.99579
C         -1.29053       -5.79256        2.36221
H         -3.51953       -4.34671        2.50125
H         -3.94681       -2.64955        2.33456
H         -5.07974       -3.89837        1.81748
H         -5.19939       -2.94050       -0.60336
H         -4.27183       -1.61893        0.07456
H         -3.69513       -2.44436       -1.37536
H         -4.60978       -5.23558       -0.34926
H         -3.08329       -4.98072       -1.19738
H         -3.10040       -5.76463        0.37734
H          2.09255       -6.71394       -0.19266
H          0.46886       -6.55072        0.45692
H          0.85406       -5.85830       -1.11388
H          3.27610       -3.27630        0.22706
H          3.61249       -4.88519       -0.37938
H          2.49426       -3.84211       -1.25327
H          1.32878       -5.39666        2.60390
H          2.96513       -5.66525        2.00939
H          2.44383       -4.04388        2.46871
H         -2.28598       -6.18153        2.57572
H         -0.56064       -6.55415        2.63623
H         -1.11663       -4.89313        2.95423
C          5.64297        2.81202       -1.99406
C          3.00701       -1.31261       -3.54302
C          3.59565        1.02950       -4.19031
C          5.32260       -0.50776       -3.17814
C          4.52385        1.65999        2.87693
C          6.35886        1.53866        1.21610
C          4.89681        3.59124        1.33043
H          3.06023       -2.07583       -2.76799
H          1.96051       -1.05793       -3.70331
H          3.37423       -1.75161       -4.47031
H          3.85979        0.69060       -5.19168
H          2.54497        1.31875       -4.19800
H          4.18181        1.91842       -3.97103
H          5.98635        0.33195       -2.98810
H          5.51383       -1.26360       -2.41706
H          5.59083       -0.92698       -4.14756
H          4.41094        0.57947        2.96217
H          5.28319        1.97428        3.59266
H          3.58828        2.12839        3.17903
H          7.03629        1.91475        1.98235
H          6.38048        0.44987        1.24886
H          6.74956        1.85065        0.25087
H          5.57148        4.04721        2.05457
H          3.89276        3.97075        1.51879
H          5.19474        3.92303        0.33885
H          5.97820        2.72834       -3.02770
H          4.64972        3.26197       -1.96848
H          6.34603        3.45126       -1.46035
