105
-153.06293319
Cl         0.03245        1.87150        3.13409
Pd        -0.47515        1.31699        1.01211
P         -1.04997        0.54101       -1.13157
N         -0.54695       -0.91577       -1.98352
C          0.27619       -1.97990       -1.62245
C          0.34710       -2.48861       -0.30169
C          1.23547       -3.54915       -0.01990
C          1.28482       -4.10934        1.38294
C          2.46719       -5.05189        1.66113
C          2.68942       -6.01919        0.49580
C          2.97089       -5.24348       -0.79867
C          2.00604       -4.11078       -1.04225
C          1.88178       -3.62345       -2.33663
C          1.03294       -2.58750       -2.62309
H          0.96252       -2.20764       -3.62749
H          2.47637       -4.06282       -3.11968
H          3.98816       -4.83513       -0.77137
H          3.50533       -6.72119        0.71938
H          3.37665       -4.45745        1.81526
H          1.31308       -3.27552        2.09318
C         -0.64904       -2.08962        0.72441
C         -0.21263       -1.49776        1.94204
C         -1.12902       -1.37368        2.99049
C         -2.42369       -1.79966        2.85013
C         -2.87252       -2.37046        1.66538
C         -4.29957       -2.86059        1.61337
C         -4.60641       -3.78866        0.42793
C         -3.95524       -3.27125       -0.85707
C         -2.43159       -3.16128       -0.69411
C         -1.99030       -2.50077        0.58988
H         -1.97867       -4.15839       -0.74594
H         -4.36712       -2.28434       -1.10135
H         -5.69129       -3.90460        0.29362
H         -4.96735       -1.99282        1.58578
H         -3.11390       -1.69306        3.66989
H         -0.80721       -0.91411        3.90848
N          1.08657       -0.99388        2.10662
P          1.61602        0.22996        0.95339
C          2.62901       -0.33901       -0.39914
C          2.49041        0.27190       -1.62039
C          3.30459       -0.10870       -2.67138
C          4.26445       -1.09726       -2.49670
C          4.40965       -1.67635       -1.24247
C          3.59204       -1.29633       -0.19329
H          3.69470       -1.74277        0.78302
H          5.16382       -2.43000       -1.09382
C          5.14525       -1.50624       -3.62502
H          3.19527        0.35805       -3.63525
H          1.73816        1.03243       -1.74569
C          2.53717        1.56046        1.73264
C          3.28857        1.31662        2.85677
C          3.99722        2.34900        3.44436
C          3.96485        3.62699        2.90226
C          3.20099        3.85096        1.76465
C          2.49376        2.81772        1.17732
H          1.90186        2.98796        0.29121
H          3.15953        4.84098        1.34370
C          4.70007        4.74598        3.55399
H          4.57823        2.16810        4.33252
H          3.32171        0.32144        3.26975
H          1.25718       -0.56536        3.00717
H         -0.80864       -0.81683       -2.95649
C         -0.59618        1.96172       -2.14464
C         -0.90912        3.23217       -1.72396
C         -0.54633        4.32636       -2.48530
C          0.13970        4.15808       -3.67969
C          0.43382        2.86895       -4.10158
C          0.06659        1.77755       -3.33614
H          0.31123        0.78092       -3.66221
H          0.95386        2.72497       -5.03329
C          0.51405        5.33521       -4.51144
H         -0.79480        5.32058       -2.15518
H         -1.44178        3.36245       -0.79722
C         -2.84578        0.48816       -1.11809
C         -3.49102        0.66302       -2.31967
C         -4.87318        0.62346       -2.37344
C         -5.61805        0.40924       -1.22207
C         -4.94901        0.24629       -0.01750
C         -3.56759        0.26892        0.02997
H         -3.04717        0.12869        0.96357
H         -5.51920        0.11255        0.88561
C         -7.10610        0.39482       -1.26847
H         -5.38157        0.76543       -3.31175
H         -2.90993        0.83454       -3.21255
Cl        -2.31201        2.61678        1.06262
H          2.95031       -5.92223       -1.66097
H          2.31442       -5.60310        2.59976
H          1.79400       -6.63926        0.36200
H          0.34067       -4.63077        1.58010
H         -4.21164       -3.91494       -1.71040
H         -2.01484       -2.60457       -1.54052
H         -4.52859       -3.37027        2.55814
H         -4.22775       -4.79544        0.64518
H          5.43302       -2.55502       -3.53840
H          4.64009       -1.38079       -4.58380
H          6.05634       -0.90668       -3.64278
H          5.59620        4.38601        4.06137
H          5.01170        5.49198        2.82159
H          4.07084        5.24269        4.29374
H          1.39440        5.12414       -5.12012
H         -0.30094        5.61029       -5.18226
H          0.74332        6.20024       -3.88754
H         -7.46731        0.07499       -2.24689
H         -7.51533       -0.29053       -0.52478
H         -7.50904        1.38861       -1.06884
