45
-71.81560357
C          2.25712        1.50718        2.34111
P          1.49217        0.96948        0.77500
P         -1.00829        0.07856       -0.93314
C         -0.34908       -0.56547       -2.50800
Cl         1.45903       -1.64754        2.47398
H          1.48809        1.83889        3.03282
H          0.71300       -0.34958       -2.57922
Cl        -1.18547       -2.70615        0.58541
C          0.43597        2.23004        0.02921
C         -0.63915        1.83322       -0.73599
C         -1.43795        2.77252       -1.35463
C         -1.15390        4.11877       -1.20696
C         -0.07203        4.51708       -0.44559
C          0.72763        3.57112        0.17153
H         -2.27810        2.44572       -1.94630
H         -1.77615        4.85555       -1.68771
H          0.15188        5.56526       -0.33416
H          1.58136        3.87056        0.75731
Pd         0.12373       -0.90548        0.82905
H         -0.86075       -0.09715       -3.34393
H          2.94928        2.32405        2.15811
H         -0.49143       -1.64119       -2.55850
C         -5.44746       -0.68044       -0.28887
C         -4.74106        0.12956        0.57798
C         -3.39272        0.35544        0.36468
C         -2.76327       -0.22558       -0.71276
C         -3.46214       -1.03750       -1.57678
C         -4.81013       -1.26507       -1.36545
H         -6.49726       -0.85946       -0.12301
H         -5.23674        0.58287        1.42062
H         -2.82506        0.98229        1.03477
H         -2.95291       -1.49607       -2.40865
H         -5.36065       -1.90158       -2.03860
C          4.50995       -0.53288       -2.27184
C          4.31307       -1.22644       -1.09363
C          3.40265       -0.75737       -0.16484
C          2.70425        0.40049       -0.41685
C          2.88864        1.09057       -1.59264
C          3.79788        0.62365       -2.52453
H          5.21813       -0.89743       -2.99793
H          4.86107       -2.13397       -0.90059
H          3.20664       -1.29895        0.74685
H          2.31883        1.98675       -1.77796
H          3.94836        1.16097       -3.44644
H          2.80001        0.67935        2.78818
