87
-129.18280516
P         -1.66860       -0.45329        0.01548
P          1.61166        0.36054       -0.15798
C         -1.45153        0.81329       -1.26191
C          1.37794       -0.72125       -1.57161
C         -0.49859        0.75764       -2.27842
C         -0.32308        1.88285       -3.10707
C         -1.12190        2.99738       -2.92071
C         -2.07155        3.03022       -1.92396
C         -2.22381        1.93881       -1.09159
C          2.21871       -1.79089       -1.75803
C          2.05934       -2.61248       -2.85648
C          1.05446       -2.35280       -3.76474
C          0.19229       -1.28244       -3.59185
C          0.36008       -0.44062       -2.47399
Cl         1.28912        1.49412        2.85725
Cl        -1.31495       -0.29648        3.24638
H         -2.68092        3.90789       -1.78328
H         -2.94553        1.96939       -0.29155
H          3.00919       -1.97764       -1.05031
H          2.71835       -3.45246       -3.00308
H         -0.98417        3.85178       -3.56158
H          0.92990       -2.98874       -4.62467
C         -0.52566       -4.74185       -0.96196
C         -1.30375       -4.03271       -1.86666
C         -1.64815       -2.72059       -1.56137
C         -1.22883       -2.14756       -0.38398
C         -0.49383       -2.87227        0.52597
C         -0.12800       -4.17142        0.23107
H         -0.24106       -5.75312       -1.19791
C         -1.72949       -4.65685       -3.14886
H         -2.23557       -2.14080       -2.25342
H         -0.24516       -2.43041        1.47758
H          0.45765       -4.74005        0.93478
C         -5.90125       -0.27497        1.68180
C         -5.56263       -1.23634        0.75020
C         -4.27422       -1.29008        0.25191
C         -3.33426       -0.38653        0.69072
C         -3.67130        0.57419        1.61600
C         -4.96285        0.64758        2.12326
H         -6.90155       -0.23666        2.07835
H         -6.30031       -1.94632        0.41373
H         -3.99518       -2.03699       -0.47345
H         -2.92130        1.26439        1.96545
C         -5.30964        1.66391        3.15357
C          4.92506       -1.27807        2.50421
C          5.04264       -0.00977        1.97038
C          4.04358        0.49193        1.15780
C          2.93944       -0.27909        0.88110
C          2.81798       -1.54057        1.41602
C          3.80757       -2.05848        2.24175
H          5.70356       -1.67197        3.13512
H          5.91047        0.59046        2.18949
H          4.11621        1.48438        0.74411
H          1.94872       -2.13327        1.18778
C          3.67884       -3.43250        2.79867
C          2.51687        4.56507       -1.61282
C          3.26614        3.49977       -2.07283
C          2.99754        2.22123       -1.62009
C          1.99093        2.02427       -0.70438
C          1.24781        3.08320       -0.23768
C          1.49192        4.37165       -0.69669
H          2.72323        5.56127       -1.96525
H          4.05519        3.66279       -2.78849
H          3.55965        1.37433       -1.98160
H          0.46617        2.91064        0.48281
C          0.68811        5.51624       -0.18899
Pd        -0.02774        0.27989        1.49979
C          0.71352        1.90947       -4.17678
C         -0.88299       -1.03891       -4.59276
H          1.25157        2.85848       -4.17120
H          1.44986        1.11667       -4.04147
H          0.26050        1.78654       -5.16119
H         -0.47377       -0.59975       -5.50335
H         -1.38035       -1.97062       -4.86557
H         -1.64411       -0.36137       -4.20404
H         -2.52240       -4.07971       -3.62662
H         -0.89302       -4.72009       -3.84606
H         -2.10780       -5.66681       -2.98443
H         -4.78986        2.60460        2.96599
H         -6.38049        1.87195        3.16030
H         -5.02687        1.31646        4.14821
H          4.26942       -3.54724        3.70863
H          2.64056       -3.65730        3.04746
H          4.02105       -4.17639        2.07783
H          1.11141        5.90537        0.73798
H          0.65733        6.33012       -0.91476
H         -0.34055        5.21285        0.01184
