111
-148.54736232
P         -1.41890        2.60711        1.32623
P         -0.31978       -0.25091        0.55493
C         -0.85786        1.47443        2.63482
C         -0.46110        0.19733        2.29533
C         -0.27810        4.04461        1.12371
C          0.30001        4.06998       -0.27537
C         -0.78588        1.88232        3.95183
H         -1.03528        2.89734        4.20983
C         -0.35568        0.99962        4.92735
H         -0.30533        1.31881        5.95560
C          0.01733       -0.28583        4.58523
H          0.35752       -0.97099        5.34417
C         -0.02277       -0.68423        3.26131
H          0.30544       -1.66953        2.96888
Pd        -1.66399        1.26844       -0.54996
Cl        -3.21378        2.69395       -1.31287
Cl        -1.66629       -0.17561       -2.27436
C         -1.17600        5.25551        1.45633
C         -3.02173        3.48559        1.64760
H          0.96454        4.92520       -0.41956
H          0.87044        3.16297       -0.48834
H         -0.49703        4.13922       -1.01856
H         -0.87419        6.11493        0.84004
H         -1.01172        5.56774        2.49821
H         -3.75426        3.04547        0.95778
C         -2.68441        4.93711        1.24792
C         -3.51314        3.34566        3.07271
H          0.51785        3.92316        1.87034
H         -3.31198        5.63351        1.82331
H         -2.94735        5.10244        0.19254
H         -4.50239        3.79170        3.19867
H         -3.57623        2.29695        3.37117
H         -2.84258        3.85446        3.76574
C         -0.85314       -4.69944       -0.26076
C         -1.89904       -3.96467        0.35438
C         -1.69266       -2.61932        0.61554
C         -0.53464       -1.99621        0.23030
C          0.43426       -2.67774       -0.45855
C          0.28948       -4.02192       -0.75700
O         -0.93603       -6.11448       -0.35291
C         -3.23577       -4.61069        0.75148
H         -2.43732       -2.03466        1.12815
H          1.31372       -2.13974       -0.76595
C          1.36671       -4.71989       -1.60225
C          3.61459        1.42706       -1.02587
C          3.34184        1.45722        0.36570
C          2.15677        0.89985        0.81474
C          1.24055        0.38482       -0.06448
C          1.45206        0.45363       -1.41616
C          2.61112        1.00317       -1.93389
O          4.89916        1.79853       -1.50465
C          4.31867        2.06731        1.38294
H          1.93008        0.86410        1.86544
H          0.67160        0.09767       -2.06502
C          2.75542        1.14009       -3.45773
C         -4.37862       -3.57097        0.70853
C         -3.61840       -5.73641       -0.22679
C         -3.12947       -5.16406        2.18045
C          2.02920       -3.71664       -2.57454
C          2.45012       -5.29364       -0.67700
C          0.75415       -5.83998       -2.46254
C         -0.37338       -6.80268        0.75693
H         -5.34484       -4.05148        0.86054
H         -4.26954       -2.81952        1.48905
H         -4.40487       -3.06405       -0.25575
H         -4.59744       -6.14963        0.01439
H         -3.65068       -5.36106       -1.24906
H         -2.90033       -6.55205       -0.19368
H         -2.88689       -4.36850        2.88462
H         -4.06905       -5.61817        2.49423
H         -2.35064       -5.91920        2.25374
H          1.27553       -3.19055       -3.16006
H          2.62996       -2.97878       -2.04472
H          2.69384       -4.23068       -3.26850
H          2.03373       -6.02399        0.01251
H          3.23533       -5.78344       -1.25236
H          2.90908       -4.50245       -0.08455
H          0.33363       -6.62969       -1.84489
H         -0.04425       -5.44692       -3.09109
H          1.50483       -6.29226       -3.11013
H         -1.13634       -7.42306        1.22684
H          0.43027       -7.45410        0.41410
H          0.01892       -6.09289        1.48631
C          5.80927        0.71280       -1.62547
C          5.06450        3.26959        0.77612
C          3.56385        2.58719        2.62756
C          5.32068        0.99362        1.83261
C          3.61133        2.36569       -3.82537
C          3.38653       -0.13911       -4.02731
C          1.37237        1.34445       -4.11848
H          5.68953        2.96678       -0.06049
H          4.35813        4.01562        0.41327
H          5.70989        3.74409        1.51489
H          2.76761        3.27223        2.33933
H          3.12635        1.77370        3.20447
H          4.23979        3.12320        3.29341
H          5.89514        0.61397        0.99122
H          6.02118        1.39512        2.56445
H          4.80242        0.15010        2.28814
H          3.19160        3.27119       -3.38831
H          4.63055        2.26187       -3.46191
H          3.65896        2.50084       -4.90561
H          2.76006       -1.00449       -3.81392
H          3.50560       -0.06801       -5.10812
H          4.36567       -0.32421       -3.59206
H          0.75405        0.45101       -4.04668
H          1.47974        1.57360       -5.17833
H          0.83677        2.16991       -3.65019
H          5.34421       -0.21372       -1.28630
H          6.11691        0.60603       -2.66548
H          6.69769        0.91437       -1.02713
