111
-148.56034559
P         -2.55338        2.23786        0.36081
P         -0.01535        0.35911        0.47044
C         -1.70670        1.97074        1.93949
C         -0.59304        1.16096        1.97898
C         -3.15374        3.97943        0.18837
C         -2.30453        4.75496       -0.79513
C         -2.17678        2.55422        3.09862
H         -3.06038        3.17031        3.06509
C         -1.51932        2.33222        4.29635
H         -1.88438        2.78816        5.20215
C         -0.39889        1.52447        4.33271
H          0.11243        1.35064        5.26519
C          0.06311        0.93311        3.17063
H          0.93248        0.29476        3.18412
Pd        -1.14875        1.40305       -1.26421
Cl        -2.62931        2.07816       -2.80694
Cl         0.32295        0.52088       -2.70815
C         -4.62158        3.79253       -0.23982
C         -4.15564        1.32063        0.24651
H         -2.32884        4.28703       -1.78060
H         -2.66145        5.78129       -0.90868
H         -1.26022        4.79142       -0.47563
H         -4.67258        3.80995       -1.33729
H         -5.23155        4.64421        0.09791
H         -4.15509        0.82867       -0.73515
C         -5.20469        2.44803        0.28189
C         -4.28511        0.30468        1.36170
H         -3.10031        4.43195        1.18660
H         -5.55080        2.57672        1.31666
H         -6.09719        2.15794       -0.29314
H         -3.47191       -0.42445        1.33248
H         -4.24676        0.79422        2.33652
H         -5.23158       -0.23761        1.30099
C         -1.18872       -4.04429        0.40045
C         -0.22386       -3.58106        1.33112
C          0.11676       -2.23829        1.30924
C         -0.51830       -1.36089        0.46937
C         -1.53492       -1.78447       -0.34674
C         -1.91675       -3.11442       -0.38426
O         -1.39841       -5.43826        0.22647
C          0.46942       -4.51199        2.33864
H          0.89967       -1.85938        1.94343
H         -2.02074       -1.06408       -0.97950
C         -3.07036       -3.53437       -1.30877
C          4.47202        0.76880       -0.19456
C          3.77730       -0.35979       -0.69895
C          2.41245       -0.43987       -0.47990
C          1.75531        0.50860        0.25831
C          2.43794        1.55106        0.82877
C          3.80641        1.68532        0.65977
O          5.82008        1.00247       -0.57569
C          4.46425       -1.46553       -1.51496
H          1.83238       -1.24001       -0.90694
H          1.88133        2.26746        1.40756
C          4.53999        2.82757        1.38043
C          0.83692       -3.74088        3.62700
C         -0.45870       -5.66641        2.75854
C          1.75888       -5.06829        1.71641
C         -4.09003       -2.38437       -1.47366
C         -2.50517       -3.88618       -2.69325
C         -3.83939       -4.73411       -0.72668
C         -0.54351       -6.03564       -0.74049
H          1.21014       -4.42143        4.39197
H          1.61789       -3.00354        3.44745
H         -0.03409       -3.22659        4.03242
H          0.00837       -6.28666        3.52316
H         -1.39437       -5.27931        3.16062
H         -0.69910       -6.30958        1.91582
H          2.26898       -5.73807        2.40825
H          1.55079       -5.62188        0.80395
H          2.44368       -4.25935        1.46474
H         -4.96477       -2.72050       -2.02982
H         -4.43018       -2.02645       -0.50281
H         -3.66751       -1.54449       -2.02306
H         -1.98452       -3.03130       -3.12432
H         -1.79649       -4.70852       -2.63257
H         -3.30134       -4.17730       -3.37787
H         -4.20615       -4.50573        0.27349
H         -4.69446       -4.99179       -1.35112
H         -3.20654       -5.61525       -0.65658
H          0.11807       -5.28691       -1.17817
H          0.05264       -6.81705       -0.26958
H         -1.14441       -6.49345       -1.52610
C          5.95923        1.79343       -1.74939
C          4.40520       -1.10121       -3.00621
C          5.92520       -1.66099       -1.07123
C          3.74770       -2.81982       -1.30869
C          5.98616        2.42799        1.72602
C          4.53505        4.07868        0.48926
C          3.83780        3.16878        2.71482
H          3.37180       -0.98935       -3.33371
H          4.91652       -0.16188       -3.20272
H          4.87210       -1.87377       -3.61650
H          6.39041       -2.48751       -1.60783
H          6.52025       -0.77102       -1.25947
H          5.97635       -1.87730       -0.00465
H          2.74917       -2.82066       -1.74316
H          4.30316       -3.62807       -1.78382
H          3.66108       -3.05200       -0.24798
H          6.57370        2.24875        0.82909
H          6.48449        3.21281        2.29452
H          6.00020        1.51615        2.32213
H          5.04221        3.89264       -0.45438
H          3.51446        4.38572        0.26196
H          5.03644        4.91117        0.98224
H          3.71158        2.27533        3.32585
H          2.85769        3.61495        2.55322
H          4.42451        3.88611        3.28825
H          4.97933        2.08734       -2.12780
H          6.54424        2.68458       -1.52251
H          6.48798        1.22467       -2.51403
