59
-75.80416407
Cl         1.77442        0.24649        2.37141
P          1.63656       -0.02144       -0.87461
P         -1.53395       -0.15468       -0.72382
C          0.62367        0.01457       -2.42076
H          0.39681        1.05719       -2.65351
H          1.22829       -0.37382       -3.24610
C         -0.64520       -0.76827       -2.22320
H         -0.43102       -1.82940       -2.08094
H         -1.31824       -0.68690       -3.08213
C          2.88377       -1.39808       -0.90904
H          2.87295       -1.79511       -1.93131
C          2.78747        1.42609       -0.69449
H          2.73503        1.71511        0.36258
C         -3.09935       -1.09547       -0.41311
H         -3.38722       -0.87436        0.62223
C         -2.31651        1.48278       -1.10376
H         -1.78694        1.89667       -1.96985
C          4.21728       -0.68455       -0.62136
H          4.44044       -0.77504        0.45068
H          5.04468       -1.19431       -1.13791
C          4.16357        0.81576       -1.00700
H          4.36457        0.92683       -2.08159
H          4.95825        1.38218       -0.49765
C         -4.06586       -0.39660       -1.38407
H         -3.94535       -0.84753       -2.37965
H         -5.11025       -0.59353       -1.09578
C         -3.78222        1.13171       -1.45898
H         -4.44758        1.65297       -0.75767
H         -4.04387        1.52621       -2.45183
C          2.57286       -2.50818        0.08968
H          2.42688       -2.05971        1.08117
H          3.45560       -3.15466        0.19267
C          2.43617        2.62189       -1.57352
H          3.27725        3.32911       -1.56551
H          2.35531        2.28658       -2.61541
C         -2.96492       -2.60283       -0.60108
H         -3.96390       -3.04052       -0.73537
H         -2.43646       -2.80097       -1.54190
C         -2.18962        2.41130        0.10019
H         -2.76597        1.98600        0.93322
H         -1.15034        2.41377        0.45483
C          1.36611       -3.34327       -0.29894
H          0.47625       -2.72207       -0.38376
H          1.15334       -4.12554        0.43330
H          1.51315       -3.82731       -1.26633
C          1.16536        3.33011       -1.13635
H          1.25232        3.70328       -0.11407
H          0.31270        2.65310       -1.15707
H          0.92518        4.18042       -1.77870
C         -2.26089       -3.27450        0.56860
H         -1.29888       -2.80553        0.77436
H         -2.08391       -4.33745        0.38994
H         -2.84939       -3.18792        1.48406
C         -2.64316        3.83456       -0.19092
H         -3.68931        3.86543       -0.49989
H         -2.54014        4.48319        0.68195
H         -2.05725        4.27653       -0.99907
Cl        -1.50482       -0.24432        2.40721
Pd         0.13596       -0.08382        0.88345
