58
-89.86785858
P          1.80406       -0.23776        0.76773
C          1.55403        1.54749        0.73256
C          1.51546        2.29963        1.88444
C          1.29117        3.66212        1.81048
C          1.11460        4.26698        0.58231
C          1.16832        3.51333       -0.57239
C          1.39144        2.15086       -0.49416
H          1.43914        1.55135       -1.38975
H          1.66901        1.82792        2.84045
C          3.47214       -0.64905        0.25007
C          4.35967        0.35369       -0.06882
C          5.64375        0.03439       -0.47190
C          6.02909       -1.28911       -0.55428
C          5.13490       -2.29204       -0.23550
C          3.85159       -1.96916        0.16867
H          3.13779       -2.74249        0.40518
H          4.04387        1.38222       -0.00352
C          1.46128       -0.97676        2.42231
C         -0.00710       -1.27150        2.69908
C         -0.93978       -0.08360        2.47829
P         -1.57128       -0.02797        0.74555
C         -3.02607       -1.07531        0.64862
C         -2.89815       -2.44290        0.56646
C         -4.02958       -3.23559        0.49521
C         -5.28125       -2.65234        0.50905
C         -5.40494       -1.27954        0.59264
C         -4.27153       -0.48936        0.66290
H         -4.35082        0.58436        0.72472
H         -1.91573       -2.88606        0.54010
C         -1.95144        1.64363        0.20873
C         -2.09366        1.87312       -1.14032
C         -2.37783        3.14576       -1.59899
C         -2.52409        4.18137       -0.69749
C         -2.39288        3.94532        0.65705
C         -2.10770        2.67052        1.11201
H         -2.00700        2.47545        2.16710
H         -1.98404        1.04672       -1.82423
Pd         0.08889       -0.79769       -0.68474
Cl         1.61711       -1.74368       -2.02546
Cl        -1.61353       -1.26177       -2.08552
H         -1.82630       -0.13658        3.11557
H         -0.43855        0.85570        2.71094
H         -0.34070       -2.10418        2.06487
H         -0.10988       -1.64274        3.73079
H          2.05954       -1.88844        2.49104
H          1.86771       -0.29048        3.16653
H          1.25375        4.25123        2.71210
H          1.03020        3.98275       -1.53246
H          6.34020        0.81733       -0.72337
H          5.43314       -3.32513       -0.30632
H         -3.93288       -4.30650        0.42393
H         -6.38131       -0.82358        0.60068
H         -2.48438        3.32701       -2.65581
H         -2.50894        4.75396        1.35983
H          0.93440        5.32806        0.52487
H          7.02829       -1.53992       -0.87117
H         -6.16302       -3.26951        0.45138
H         -2.74313        5.17555       -1.05144
