87
-129.18263931
P         -1.55905       -0.17234       -0.25741
P          1.71836        0.44890        0.17050
C         -1.20774        1.06683       -1.50847
C          1.52869       -0.63301       -1.26937
C         -0.15776        0.85430       -2.39273
C          0.10620        1.82518       -3.37972
C         -0.69708        2.95155       -3.44877
C         -1.73674        3.14073       -2.56258
C         -1.98996        2.19233       -1.59129
C          2.24699       -1.80463       -1.21281
C          2.10086       -2.76793       -2.19147
C          1.21120       -2.56031       -3.22201
C          0.46724       -1.39581       -3.29723
C          0.63842       -0.39945       -2.31658
Cl         1.17403       -0.02185        3.35309
Cl        -1.44977       -1.73281        2.55712
H         -2.34931        4.02501       -2.62704
H         -2.80778        2.32524       -0.90284
H          2.92123       -1.97319       -0.38900
H          2.66777       -3.68300       -2.13971
H         -0.49822        3.68779       -4.20891
H          1.07792       -3.31503       -3.97852
C         -2.51881       -4.12264       -2.28092
C         -1.54055       -4.08667       -1.29654
C         -1.27915       -2.87660       -0.66605
C         -1.95920       -1.73852       -1.03142
C         -2.91974       -1.77893       -2.01449
C         -3.20535       -2.97890       -2.63920
H         -2.73850       -5.05772       -2.76731
C         -0.80429       -5.31641       -0.89703
H         -0.53369       -2.82738        0.10961
H         -3.43306       -0.87177       -2.29282
H         -3.95859       -3.01926       -3.40886
C         -4.98495        1.17251        2.42896
C         -3.85696        1.95948        2.30704
C         -2.82263        1.55783        1.48376
C         -2.92481        0.37686        0.78591
C         -4.04565       -0.41060        0.90938
C         -5.09845       -0.02028        1.72827
H         -5.78777        1.47735        3.07849
H         -3.77908        2.88231        2.85817
H         -1.93420        2.15950        1.38338
H         -4.10059       -1.34474        0.37696
C         -6.29511       -0.89034        1.88821
C          5.80125       -0.19322        2.07886
C          5.57916        0.90388        1.27026
C          4.33613        1.09778        0.69722
C          3.32489        0.19721        0.93937
C          3.54577       -0.89830        1.74180
C          4.79042       -1.11302        2.32111
H          6.76567       -0.34160        2.53406
H          6.37227        1.61049        1.08828
H          4.14764        1.95143        0.06666
H          2.74007       -1.58608        1.93895
C          5.01090       -2.27781        3.22071
C          0.88206        4.88444       -0.35694
C          0.36284        4.20429        0.72686
C          0.63448        2.85931        0.88751
C          1.40017        2.20210       -0.04797
C          1.93914        2.88136       -1.11509
C          1.68951        4.23890       -1.28325
H          0.67017        5.93187       -0.48853
H         -0.24505        4.72202        1.45067
H          0.28583        2.32517        1.75666
H          2.54643        2.35087       -1.82927
C          2.24375        4.97957       -2.44898
Pd        -0.02153       -0.36823        1.48826
C          1.22247        1.66118       -4.35166
C         -0.50739       -1.23349       -4.41222
H          1.77760        2.59278       -4.46898
H          1.92830        0.89710       -4.02386
H          0.84398        1.37213       -5.33282
H          0.00512       -1.00440       -5.34725
H         -1.08232       -2.14873       -4.56032
H         -1.21791       -0.43141       -4.21010
H         -1.26950       -5.78010       -0.02611
H         -0.79169       -6.04990       -1.70444
H          0.23148       -5.08600       -0.64283
H         -7.18475       -0.30029        2.11296
H         -6.49404       -1.45629        0.97695
H         -6.14824       -1.60264        2.70126
H          4.44885       -3.14832        2.87925
H          6.06499       -2.55648        3.25667
H          4.68770       -2.04673        4.23665
H          1.47485        5.14445       -3.20488
H          2.63087        5.95311       -2.14480
H          3.06174        4.42887       -2.91559
