87
-129.18466618
P         -1.52678       -0.30638       -0.39236
P          1.68988        0.37889        0.07576
C         -1.18012        0.92614       -1.65104
C          1.56280       -0.72483       -1.35280
C         -0.11829        0.72639       -2.52400
C          0.14528        1.70199       -3.50645
C         -0.66831        2.82067       -3.58107
C         -1.71960        2.99701       -2.70609
C         -1.97259        2.04411       -1.73933
C          2.30088       -1.88203       -1.26875
C          2.20365       -2.85031       -2.24850
C          1.34451       -2.66151       -3.30837
C          0.58134       -1.51150       -3.41111
C          0.70120       -0.51077       -2.42731
Cl         1.08668        0.27623        3.24571
Cl        -1.51265       -1.59469        2.63037
H         -2.33940        3.87601       -2.77365
H         -2.79549        2.17002       -1.05560
H          2.95266       -2.03457       -0.42400
H          2.78568       -3.75441       -2.17581
H         -0.46454        3.56389       -4.33315
H          1.25075       -3.41994       -4.06709
C         -2.25147       -4.33741       -2.35156
C         -1.35312       -4.24933       -1.29688
C         -1.15574       -3.01213       -0.69592
C         -1.84105       -1.90490       -1.13852
C         -2.73584       -2.00080       -2.17812
C         -2.94441       -3.22465       -2.78672
H         -2.40168       -5.28851       -2.83331
C         -0.57573       -5.43702       -0.85087
H         -0.45379       -2.91654        0.11523
H         -3.25326       -1.11674       -2.51670
H         -3.63957       -3.30692       -3.60608
C         -5.08279        1.02711        2.12566
C         -5.16269       -0.14122        1.39372
C         -4.08921       -0.54753        0.62394
C         -2.94835        0.21887        0.58678
C         -2.86565        1.38111        1.31821
C         -3.93069        1.80111        2.10466
H         -5.91827        1.34558        2.72548
H         -6.05895       -0.73881        1.42579
H         -4.13314       -1.46354        0.05804
H         -1.96640        1.97149        1.27903
C         -3.83586        3.06643        2.88229
C          5.66138       -0.25042        2.21014
C          5.48722        0.83826        1.37874
C          4.27883        1.02728        0.73453
C          3.25470        0.12976        0.92813
C          3.42734       -0.95705        1.75402
C          4.63701       -1.16661        2.40487
H          6.59819       -0.39478        2.72088
H          6.29014        1.54251        1.23457
H          4.12671        1.87526        0.08671
H          2.61088       -1.64203        1.91296
C          4.80447       -2.32158        3.32823
C          0.86855        4.79304       -0.61683
C          1.71440        4.11815       -1.47543
C          1.98394        2.77834       -1.26740
C          1.40107        2.12738       -0.20623
C          0.58912        2.80619        0.67324
C          0.30283        4.15125        0.47630
H          0.64381        5.83207       -0.78753
H          2.15354        4.63107       -2.31531
H          2.62860        2.23119       -1.93652
H          0.20577        2.29569        1.54033
C         -0.62120        4.87181        1.39329
Pd        -0.04297       -0.41309        1.42134
C          1.28000        1.56001       -4.46038
C         -0.35708       -1.36786       -4.55913
H          1.97077        0.77650       -4.14689
H          0.91915        1.31172       -5.45925
H          1.84718        2.48929       -4.53081
H          0.18199       -1.11815       -5.47374
H         -0.90122       -2.29713       -4.73372
H         -1.09574       -0.58655       -4.37742
H         -1.13507       -6.35906       -1.01513
H          0.36521       -5.51047       -1.39805
H         -0.34219       -5.37581        0.21306
H         -3.97734        3.93191        2.23342
H         -4.59203        3.10706        3.66745
H         -2.85878        3.15751        3.35908
H          4.41652       -2.08207        4.31925
H          4.26881       -3.19795        2.96035
H          5.85523       -2.59499        3.43404
H         -0.60725        4.43148        2.39135
H         -0.34051        5.92149        1.49021
H         -1.64559        4.82947        1.02041
