87
-129.17956267
P         -1.55116       -0.29241       -0.38113
P          1.66820        0.33502        0.34568
C         -1.14702        1.00467       -1.55613
C          1.53065       -0.70280       -1.13390
C         -0.03360        0.82547       -2.36593
C          0.29094        1.82184       -3.30816
C         -0.52676        2.93500       -3.41647
C         -1.63508        3.08767       -2.60873
C         -1.94326        2.11709       -1.67569
C          2.20639       -1.89601       -1.02062
C          2.13468       -2.84093       -2.02611
C          1.36253       -2.59131       -3.13906
C          0.65781       -1.40694       -3.26781
C          0.75323       -0.43044       -2.25762
Cl         0.90738       -0.51005        3.41487
Cl        -1.61904       -2.19516        2.22841
H         -2.25739        3.96236       -2.70329
H         -2.81259        2.22108       -1.04820
H          2.78376       -2.09190       -0.12902
H          2.66762       -3.77286       -1.93240
H         -0.28319        3.69111       -4.14340
H          1.28718       -3.33075       -3.91830
C         -2.56530       -4.04441       -2.73396
C         -1.64707       -4.12727       -1.69620
C         -1.36788       -2.97945       -0.96512
C         -1.97117       -1.78530       -1.28297
C         -2.87242       -1.70835       -2.31871
C         -3.17536       -2.84503       -3.04533
H         -2.79898       -4.93078       -3.29873
C         -0.99655       -5.41887       -1.34619
H         -0.66984       -3.02369       -0.14650
H         -3.32595       -0.75914       -2.55795
H         -3.88242       -2.79269       -3.85691
C         -5.08062        1.01265        2.18929
C         -5.15468       -0.16444        1.47085
C         -4.09074       -0.55917        0.68192
C         -2.96255        0.22410        0.61684
C         -2.88556        1.39356        1.33593
C         -3.94677        1.81116        2.12829
H         -5.90582        1.31841        2.80957
H         -6.03827       -0.77864        1.52939
H         -4.12998       -1.48176        0.12621
H         -1.99342        1.99205        1.28158
C         -3.84232        3.07036        2.91470
C          6.03486        0.22494        1.62268
C          5.69465        0.53908        0.32151
C          4.36439        0.57236       -0.05501
C          3.38780        0.28722        0.87099
C          3.72621       -0.02339        2.16593
C          5.05539       -0.05313        2.56582
H          7.07009        0.19235        1.91703
H          6.46426        0.75600       -0.40103
H          4.08211        0.81061       -1.06866
H          2.94749       -0.24610        2.87315
C          5.41871       -0.41661        3.96267
C          0.37606        4.69379        0.27641
C         -0.03484        3.86010        1.29731
C          0.37323        2.54040        1.31115
C          1.16381        2.05896        0.29328
C          1.60450        2.89557       -0.70460
C          1.21101        4.22906       -0.73004
H          0.06103        5.72328        0.25992
H         -0.65936        4.24071        2.08895
H          0.11482        1.89027        2.13231
H          2.25078        2.50841       -1.47377
C          1.66433        5.14312       -1.81360
Pd        -0.13675       -0.70506        1.44444
C          1.48623        1.69850       -4.18714
C         -0.20073       -1.20580       -4.46861
H          2.03810        2.63853       -4.22923
H          2.17098        0.93145       -3.82328
H          1.19499        1.43585       -5.20484
H         -0.92021       -0.40064       -4.31671
H          0.40357       -0.96005       -5.34260
H         -0.76720       -2.11009       -4.69570
H         -0.93579       -6.07842       -2.21301
H          0.01877       -5.25864       -0.98025
H         -1.55759       -5.93564       -0.56641
H         -3.44686        3.88105        2.30084
H         -4.81570        3.38488        3.29353
H         -3.17579        2.93840        3.76822
H          6.32864        0.09537        4.27892
H          4.62494       -0.14211        4.65896
H          5.58706       -1.49069        4.05177
H          2.18908        6.00557       -1.40017
H          2.34378        4.63830       -2.50160
H          0.81519        5.51029       -2.39173
