72
-98.10162900
Fe        -0.00918        2.80275       -0.04119
P          1.86473       -0.05896       -0.04666
P         -1.82806       -0.07624       -0.06070
C          1.44115        1.59653        0.62408
C          0.49426        1.87253        1.69027
C          0.43439        3.31263        1.87369
C          1.38626        3.92889        0.96694
C          2.00266        2.86719        0.18955
C         -1.40333        1.56350       -0.75592
C         -2.01784        2.83450       -0.40885
C         -1.35793        3.87309       -1.18217
C         -0.37209        3.24446       -2.04228
C         -0.39653        1.81789       -1.77234
C          3.20398       -0.76445        1.02792
C          4.42230        0.04660        0.55448
C          2.92967        0.17472       -1.55567
C          4.34070        0.40108       -0.96052
C         -3.25479       -0.76769       -1.02181
C         -4.46358       -0.27754       -0.20775
C         -2.66551        0.10808        1.58772
C         -4.14396       -0.23244        1.30877
H         -0.06085        1.13014        2.26207
H         -0.18080        3.83719        2.60885
H          1.59734        4.99723        0.88085
H          2.76287        2.99760       -0.58336
H         -2.82782        2.97773        0.30952
H          0.23305        1.06396       -2.24553
Cl         1.59643       -3.10848       -0.25172
Cl        -1.57993       -3.07977        0.21337
Pd         0.02213       -1.51026       -0.03189
H          3.32197       -1.81864        0.75214
C          2.92392       -0.64025        2.52336
H          2.56687        1.07074       -2.07311
C          2.90069       -1.02328       -2.50360
H          5.35513       -0.49107        0.78518
H          4.46708        0.97150        1.14825
H          4.66732        1.43818       -1.12782
H          5.06029       -0.21445       -1.51842
H         -1.59414        4.93916       -1.15296
H          0.27792        3.75264       -2.75779
H          3.86794       -0.75816        3.07341
H          3.72036       -0.92145       -3.22862
H         -3.17806       -1.85968       -0.96902
C         -3.27745       -0.31680       -2.47792
H         -2.55199        1.16084        1.87216
C         -2.03927       -0.79624        2.64324
H         -5.34225       -0.90998       -0.40841
H         -4.73797        0.72796       -0.55695
H         -4.80635        0.47670        1.82712
H         -4.36772       -1.21357        1.74891
H         -4.24329       -0.59252       -2.92370
H         -0.95273       -0.65809        2.64546
C          1.90787       -1.65024        3.03034
H          0.95921       -1.55353        2.50555
H          2.25421       -2.67294        2.86984
H          1.70684       -1.53295        4.09759
C          1.58990       -1.20163       -3.24864
H          0.76950       -1.39021       -2.55869
H          1.33763       -0.31218       -3.82886
H          1.62531       -2.04545       -3.94157
C         -2.14144       -0.90172       -3.29747
H         -1.17775       -0.59909       -2.89150
H         -2.16623       -1.99304       -3.28772
H         -2.17493       -0.57800       -4.34021
C         -2.59416       -0.55696        4.03922
H         -2.13074       -1.21086        4.78150
H         -2.42522        0.47343        4.35791
H         -3.67079       -0.73193        4.07521
H          2.59218        0.38354        2.73856
H          3.13686       -1.92807       -1.92861
H         -3.24693        0.78018       -2.51002
H         -2.18942       -1.84235        2.34546
