105
-153.06173197
Cl         0.15313        2.21270        2.98081
Pd        -0.37805        1.44932        0.92778
P         -1.04402        0.53513       -1.14720
N         -0.46847       -0.88468       -2.01367
C          0.28394       -1.98632       -1.62027
C          0.30832       -2.47181       -0.28993
C          1.17278       -3.53765        0.03873
C          1.19062       -4.04632        1.46133
C          1.92910       -5.37949        1.66000
C          3.23019       -5.41330        0.85319
C          2.93879       -5.24083       -0.64458
C          1.97516       -4.12113       -0.94547
C          1.88019       -3.67135       -2.25614
C          1.05082       -2.63273       -2.58886
H          1.01337       -2.27356       -3.60260
H          2.48610       -4.13931       -3.01351
H          3.87144       -5.06379       -1.19565
H          3.88853       -4.60325        1.19176
H          2.12785       -5.56102        2.72569
H          1.64971       -3.27730        2.09344
C         -0.70733       -2.04350        0.70365
C         -0.29513       -1.44514        1.92539
C         -1.23334       -1.31091        2.95256
C         -2.51953       -1.75780        2.79782
C         -2.93999       -2.35328        1.61485
C         -4.35122       -2.88560        1.55085
C         -4.61004       -3.84160        0.37628
C         -3.96710       -3.31626       -0.90972
C         -2.45008       -3.14556       -0.73672
C         -2.04081       -2.47414        0.55245
H         -1.95717       -4.12336       -0.79145
H         -4.41451       -2.34926       -1.17004
H         -5.68814       -4.00232        0.23374
H         -5.04496       -2.03983        1.49871
H         -3.22345       -1.65359        3.60614
H         -0.93101       -0.84244        3.87270
N          1.00835       -0.97059        2.13009
P          1.63612        0.23102        1.00719
C          2.60940       -0.34338       -0.37118
C          2.45855        0.28449       -1.58288
C          3.25333       -0.09168       -2.65039
C          4.21486       -1.08247       -2.49879
C          4.36113       -1.69064       -1.25845
C          3.56363       -1.31495       -0.19239
H          3.67557       -1.77570        0.77626
H          5.09811       -2.46549       -1.13428
C          5.03981       -1.51981       -3.65828
H          3.12692        0.37944       -3.61003
H          1.71095        1.05312       -1.68857
C          2.64712        1.46687        1.82932
C          3.30836        1.15910        2.99404
C          4.09263        2.11700        3.61093
C          4.21749        3.38733        3.06465
C          3.55816        3.67085        1.87605
C          2.77507        2.71170        1.25962
H          2.26019        2.92947        0.33671
H          3.66035        4.64818        1.43625
C          5.07716        4.41178        3.71956
H          4.61378        1.88270        4.52343
H          3.21782        0.17024        3.41318
H          1.15388       -0.54027        3.03421
H         -0.71246       -0.79069       -2.99201
C         -0.68806        1.96969       -2.18137
C         -1.15458        3.20698       -1.80620
C         -0.88921        4.31585       -2.58658
C         -0.14636        4.19583       -3.75266
C          0.30593        2.93801       -4.12671
C          0.03491        1.83125       -3.34348
H          0.39420        0.85934       -3.63617
H          0.87164        2.83061       -5.03649
C          0.12308        5.38551       -4.60687
H         -1.25765        5.28385       -2.29269
H         -1.72239        3.29962       -0.89553
C         -2.83603        0.40670       -1.12564
C         -3.48385        0.47893       -2.33658
C         -4.86421        0.39443       -2.38832
C         -5.60573        0.24092       -1.22516
C         -4.93516        0.18270       -0.01198
C         -3.55476        0.24657        0.03385
H         -3.03090        0.18332        0.97449
H         -5.50284        0.09885        0.89872
C         -7.09253        0.17888       -1.27050
H         -5.37394        0.45517       -3.33462
H         -2.90638        0.60789       -3.23896
Cl        -2.35966        2.51236        1.08402
H          2.52942       -6.17303       -1.05179
H          1.28228       -6.20507        1.33746
H          3.78432       -6.34370        1.04201
H          0.15588       -4.13649        1.81529
H         -4.19148       -3.98000       -1.75666
H         -2.04987       -2.56655       -1.57685
H         -4.57915       -3.38690        2.50036
H         -4.19379       -4.82934        0.61141
H          4.53940       -2.31724       -4.20943
H          5.21810       -0.69394       -4.34834
H          6.01105       -1.89435       -3.33203
H          4.73694        5.42101        3.48355
H          5.06015        4.30305        4.80488
H          6.11210        4.31892        3.38756
H          0.19528        6.29313       -4.00597
H          1.06146        5.27465       -5.15207
H         -0.67550        5.52733       -5.33632
H         -7.52579        1.16925       -1.12462
H         -7.44263       -0.20417       -2.23007
H         -7.48159       -0.47750       -0.49071
