111
-148.55399934
P         -2.56341        2.08957        1.04205
P          0.10170        0.41670        0.47199
C         -1.44410        1.66266        2.40342
C         -0.27443        0.98030        2.14448
C         -3.30960        3.76870        1.26085
C         -2.69681        4.77352        0.30992
C         -1.76510        2.00888        3.70026
H         -2.69026        2.52410        3.90076
C         -0.90664        1.67823        4.73475
H         -1.15709        1.94836        5.74764
C          0.26832        1.00066        4.47135
H          0.93545        0.74120        5.27682
C          0.58327        0.64680        3.17162
H          1.48812        0.10265        2.94935
Pd        -1.38308        1.59165       -0.87127
Cl        -3.03322        2.50965       -2.07192
Cl         0.06558        1.05590       -2.51237
C         -4.81166        3.50707        1.04223
C         -4.09293        1.05099        0.99022
H         -2.85705        4.47403       -0.72670
H         -3.13753        5.76496        0.43795
H         -1.61828        4.85845        0.46312
H         -5.05217        3.69800       -0.01274
H         -5.41466        4.22586        1.61770
H         -4.22170        0.75217       -0.05881
C         -5.19637        2.04315        1.40209
C         -3.96519       -0.16405        1.88312
H         -3.12075        4.05997        2.30190
H         -5.35812        1.96247        2.48586
H         -6.15495        1.76357        0.93902
H         -3.13784       -0.80171        1.56429
H         -3.77169        0.13208        2.91579
H         -4.87781       -0.76452        1.87459
C         -1.13180       -3.92974       -0.09391
C         -1.10903       -3.37846        1.21333
C         -0.72950       -2.05493        1.36100
C         -0.45487       -1.27432        0.26912
C         -0.58105       -1.77337       -0.99943
C         -0.95778       -3.08585       -1.22041
O         -1.28399       -5.33062       -0.27111
C         -1.44294       -4.20541        2.46454
H         -0.62524       -1.61839        2.33835
H         -0.36230       -1.11425       -1.82106
C         -1.13255       -3.57309       -2.66665
C          4.49288        0.67353       -0.69716
C          3.91270       -0.58302       -0.37917
C          2.57282       -0.61335       -0.03282
C          1.84077        0.53996        0.07743
C          2.42704        1.76431       -0.10479
C          3.76440        1.86899       -0.45318
O          5.76000        0.72864       -1.33236
C          4.67534       -1.91855       -0.39512
H          2.07699       -1.55401        0.13761
H          1.81922        2.64597        0.01052
C          4.37219        3.27817       -0.55480
C         -2.02654       -3.30519        3.57741
C         -2.50374       -5.27678        2.15333
C         -0.16058       -4.86672        2.99190
C         -1.63656       -2.42221       -3.56817
C          0.22170       -4.06095       -3.20363
C         -2.17768       -4.69980       -2.75332
C         -0.05418       -6.04427       -0.30572
H         -1.28584       -2.60640        3.96322
H         -2.87814       -2.73485        3.20830
H         -2.36811       -3.90571        4.42021
H         -2.78806       -5.82017        3.05408
H         -3.40004       -4.81914        1.73589
H         -2.13439       -6.00350        1.43397
H         -0.36289       -5.45037        3.88960
H          0.27352       -5.53222        2.24962
H          0.58728       -4.11370        3.23973
H         -0.88214       -1.64745       -3.69540
H         -1.88653       -2.79056       -4.56275
H         -2.53021       -1.96274       -3.14668
H          0.95606       -3.25601       -3.18299
H          0.61211       -4.87992       -2.60397
H          0.13159       -4.40893       -4.23229
H         -2.34655       -4.99902       -3.78745
H         -1.85800       -5.58167       -2.20413
H         -3.12907       -4.37302       -2.33494
H          0.05336       -6.54431       -1.26805
H          0.78526       -5.36435       -0.15410
H         -0.05174       -6.80466        0.47515
C          5.66658        0.67438       -2.74626
C          6.20036       -1.72302       -0.44555
C          4.36290       -2.70264        0.89915
C          4.22090       -2.75038       -1.60644
C          5.91047        3.25349       -0.57777
C          3.84949        3.96807       -1.82585
C          3.95416        4.10823        0.67915
H          6.72170       -2.67603       -0.35872
H          6.50885       -1.26404       -1.38171
H          6.53204       -1.07823        0.36753
H          4.94926       -3.61982        0.94859
H          4.60064       -2.10388        1.77794
H          3.31332       -2.98627        0.95854
H          4.73156       -3.71265       -1.63210
H          3.14879       -2.94101       -1.56748
H          4.43172       -2.23324       -2.54053
H          6.28395        2.77046       -1.47752
H          6.32005        4.26302       -0.55220
H          6.29891        2.70664        0.28068
H          4.14280        3.42105       -2.71963
H          2.76165        4.02823       -1.81693
H          4.24156        4.98139       -1.90862
H          4.24258        3.60072        1.59925
H          2.87897        4.27612        0.70953
H          4.43453        5.08632        0.67005
H          5.18899       -0.25432       -3.05412
H          5.07417        1.51044       -3.11396
H          6.66755        0.72500       -3.17523
