111
-148.54812926
P         -2.65243        1.89938        0.62799
P          0.17940        0.46002        0.44301
C         -1.69975        1.55265        2.13795
C         -0.44811        0.98333        2.04698
C         -3.80112        3.32722        0.93675
C         -3.68676        4.40585       -0.11623
C         -2.22865        1.84137        3.38088
H         -3.21943        2.25726        3.45732
C         -1.49580        1.57499        4.52460
H         -1.91025        1.80229        5.49324
C         -0.23682        1.01544        4.42710
H          0.33319        0.80541        5.31716
C          0.28577        0.71276        3.18317
H          1.25848        0.25636        3.08999
Pd        -1.10351        1.63517       -1.09106
Cl        -2.30790        3.02582       -2.35842
Cl         0.44845        1.15434       -2.64313
C         -5.18744        2.65111        0.97622
C         -3.88501        0.56614        0.25497
H         -3.98772        4.02073       -1.09139
H         -4.32912        5.25994        0.11048
H         -2.65993        4.76709       -0.20610
H         -5.95028        3.35580        0.61422
H         -5.46521        2.42388        2.01590
H         -3.59770        0.12515       -0.70964
C         -5.21254        1.34156        0.13998
C         -3.88831       -0.48976        1.33915
H         -3.53293        3.74002        1.91810
H         -6.04466        0.69537        0.45559
H         -5.41072        1.58749       -0.91368
H         -2.90520       -0.95151        1.44566
H         -4.14991       -0.05047        2.30358
H         -4.61099       -1.28136        1.12742
C         -1.44396       -3.72210       -0.33385
C         -1.10011       -2.88504       -1.42580
C         -0.59715       -1.62635       -1.15009
C         -0.38266       -1.21393        0.13787
C         -0.60142       -2.06249        1.19108
C         -1.09219       -3.34108        0.98677
O         -2.17924       -4.91609       -0.55863
C         -1.31618       -3.29623       -2.88980
H         -0.37399       -0.93494       -1.94317
H         -0.40657       -1.70161        2.18576
C         -1.27399       -4.26975        2.19693
C          4.71797        0.58782        0.11132
C          4.08449       -0.48457        0.79007
C          2.70080       -0.49525        0.85003
C          1.96257        0.54288        0.34428
C          2.57440        1.63464       -0.21243
C          3.95386        1.70290       -0.31866
O          6.10880        0.52802       -0.17052
C          4.86628       -1.64219        1.43098
H          2.17529       -1.32941        1.28243
H          1.95207        2.42740       -0.59011
C          4.59311        2.95342       -0.94212
C         -0.27189       -2.61813       -3.80610
C         -1.15343       -4.81614       -3.07035
C         -2.71879       -2.85537       -3.33578
C         -0.19539       -3.98280        3.26655
C         -2.65879       -4.03038        2.81768
C         -1.12105       -5.74741        1.79320
C         -3.58973       -4.74191       -0.50387
H          0.73910       -2.80106       -3.44316
H         -0.33849       -3.00632       -4.82213
H         -0.42490       -1.54165       -3.86563
H         -1.91029       -5.36487       -2.51543
H         -1.24459       -5.09824       -4.11895
H         -0.17658       -5.14216       -2.71478
H         -2.89903       -3.12082       -4.37710
H         -3.49055       -3.32500       -2.73051
H         -2.83217       -1.77583       -3.23790
H         -0.24100       -4.71875        4.06897
H          0.80240       -4.02446        2.83056
H         -0.32905       -3.00351        3.72365
H         -2.75929       -2.99738        3.14987
H         -3.45178       -4.22555        2.09946
H         -2.81748       -4.67808        3.67948
H         -1.89933       -6.05181        1.09804
H         -0.15855       -5.91559        1.31121
H         -1.18342       -6.40008        2.66362
H         -3.83715       -3.69724       -0.31083
H         -4.03305       -5.05095       -1.45037
H         -4.00576       -5.36553        0.28718
C          6.42294       -0.10639       -1.40404
C          4.10175       -2.20492        2.65141
C          5.04184       -2.76902        0.40177
C          6.23923       -1.16989        1.94278
C          5.97933        3.23218       -0.33342
C          4.70910        2.75665       -2.46142
C          3.72460        4.20361       -0.67409
H          3.84728       -1.40852        3.35034
H          3.18270       -2.70831        2.35528
H          4.70867       -2.93652        3.18434
H          4.07297       -3.13145        0.05880
H          5.59326       -2.42506       -0.46993
H          5.58392       -3.61042        0.83266
H          6.87219       -0.83026        1.12692
H          6.12382       -0.34249        2.64211
H          6.76528       -1.97561        2.45422
H          6.40332        4.15424       -0.73029
H          5.91023        3.32904        0.74953
H          6.67816        2.42877       -0.55218
H          5.14528        3.63452       -2.93724
H          5.33289        1.89916       -2.70158
H          3.72742        2.58525       -2.90261
H          2.77889        4.16040       -1.21224
H          4.23690        5.10779       -1.00212
H          3.51139        4.30699        0.38951
H          5.51116       -0.42623       -1.91009
H          6.96926        0.58714       -2.04309
H          7.05941       -0.97162       -1.21952
