111
-148.55048133
P         -2.62447        2.05989        0.44880
P          0.10858        0.45056        0.47721
C         -1.75450        1.76850        2.01795
C         -0.54388        1.11033        2.01815
C         -3.56899        3.65306        0.52918
C         -3.22411        4.57396       -0.61999
C         -2.30263        2.19175        3.21256
H         -3.25828        2.68951        3.21447
C         -1.63104        1.96079        4.40088
H         -2.05961        2.29163        5.33283
C         -0.41505        1.30481        4.39503
H          0.10605        1.12235        5.32042
C          0.12855        0.87350        3.19849
H          1.06807        0.34361        3.17528
Pd        -1.08886        1.49507       -1.19656
Cl        -2.49583        2.38953       -2.69390
Cl         0.47288        0.90496       -2.70050
C         -5.03921        3.18409        0.53677
C         -4.00828        0.86653        0.15510
H         -3.74243        5.53211       -0.53666
H         -2.15052        4.77120       -0.66350
H         -3.51633        4.12698       -1.57081
H         -5.66586        3.93488        0.03362
H         -5.41143        3.13416        1.57059
H         -3.73796        0.27701       -0.73193
C         -5.20652        1.79273       -0.13674
C         -4.20334       -0.03896        1.35178
H         -3.30001        4.12869        1.48180
H         -6.13570        1.30868        0.19783
H         -5.31608        1.92733       -1.22302
H         -3.29515       -0.60439        1.57148
H         -4.44958        0.54506        2.24050
H         -5.01449       -0.75247        1.18800
C         -1.33167       -3.83029       -0.11304
C         -0.76036       -3.11300       -1.19477
C         -0.35931       -1.80774       -0.97304
C         -0.43928       -1.24227        0.27109
C         -0.88884       -1.96606        1.34368
C         -1.31048       -3.27641        1.19292
O         -1.95545       -5.08546       -0.34255
C         -0.59773       -3.71078       -2.60046
H          0.01080       -1.19733       -1.77831
H         -0.91194       -1.48760        2.30667
C         -1.75756       -4.06722        2.43249
C          4.64551        0.65133        0.17053
C          4.00923       -0.56201        0.53669
C          2.62951       -0.56798        0.65444
C          1.88882        0.54573        0.35529
C          2.48972        1.69001       -0.09863
C          3.86578        1.76195       -0.24331
O          6.05926        0.76359        0.24861
C          4.78845       -1.85740        0.81288
H          2.10821       -1.45251        0.97806
H          1.86300        2.52814       -0.35062
C          4.48995        3.03237       -0.84188
C         -0.35965       -5.23009       -2.53466
C         -1.85394       -3.40387       -3.42966
C          0.62737       -3.09395       -3.31434
C         -1.43223       -5.56419        2.27922
C         -1.01418       -3.57148        3.69383
C         -3.26631       -3.87274        2.64662
C         -3.33731       -4.99421       -0.66577
H          0.50653       -5.45575       -1.91346
H         -1.21662       -5.74854       -2.11220
H         -0.18184       -5.64229       -3.52761
H         -2.74241       -3.83399       -2.97351
H         -2.00965       -2.32804       -3.50791
H         -1.76415       -3.80627       -4.43828
H          0.47074       -2.04242       -3.54986
H          1.51964       -3.17693       -2.69436
H          0.82486       -3.60570       -4.25589
H         -0.37010       -5.70789        2.08358
H         -1.68849       -6.11570        3.18346
H         -1.98608       -6.00804        1.45566
H          0.06410       -3.57781        3.53599
H         -1.31548       -2.56165        3.96876
H         -1.23116       -4.21295        4.54768
H         -3.61110       -4.42704        3.51916
H         -3.50146       -2.82036        2.80235
H         -3.83461       -4.21500        1.78522
H         -3.51094       -5.41711       -1.65507
H         -3.91939       -5.56714        0.05592
H         -3.66354       -3.95341       -0.65288
C          6.53462        1.22174        1.50791
C          3.93003       -3.09477        0.46143
C          6.05972       -1.93357       -0.05204
C          5.15699       -1.92170        2.30256
C          3.51518        3.69707       -1.84102
C          4.79692        4.02969        0.28505
C          5.77497        2.70302       -1.62338
H          3.54286       -3.02196       -0.55462
H          4.52107       -4.00777        0.52959
H          3.08735       -3.20888        1.14177
H          5.81051       -1.84194       -1.10868
H          6.75655       -1.13685        0.19635
H          6.57724       -2.88137        0.09394
H          5.77949       -1.07795        2.59089
H          4.26091       -1.89971        2.92241
H          5.70315       -2.83669        2.53056
H          3.17170        2.97730       -2.58367
H          2.64320        4.11272       -1.33849
H          4.00099        4.51733       -2.36886
H          5.49734        3.60937        1.00289
H          5.23167        4.94640       -0.11257
H          3.88757        4.29338        0.82458
H          6.17926        3.59235       -2.10616
H          5.57457        1.95958       -2.39418
H          6.54638        2.30503       -0.96880
H          7.20009        0.47509        1.94089
H          7.09961        2.14374        1.37189
H          5.70035        1.40293        2.18678
