100
-131.97720216
C         -1.57823        3.89424       -1.37662
C         -2.30349        2.61991       -1.44109
C         -0.18640        3.60696       -1.39903
C          0.01420        2.13734       -1.53460
C          1.18518        1.59051       -2.28001
C         -1.36477        1.54437       -1.57817
C         -1.76763        0.15602       -2.03434
C         -0.85699       -0.45828       -3.07876
Cl         1.04308       -0.45803        2.76890
Cl        -1.72805       -1.62238        2.32013
C          3.26752        0.62851       -3.89074
C          2.53794        1.72896       -4.29615
C          2.97592        0.01868       -2.67907
C          1.52251        2.20586       -3.50556
C          1.94977        0.47310       -1.88498
H         -3.38753        2.51803       -1.52228
H          0.61214        4.35140       -1.44308
H          0.08647       -0.76843       -2.63184
H         -1.30397       -1.33982       -3.54379
H         -0.63192        0.25406       -3.87590
H          4.07160        0.25579       -4.50395
H          2.76617        2.21175       -5.23261
H          3.58368       -0.80781       -2.34896
H          0.94520        3.05525       -3.82792
H         -2.02974        4.88915       -1.34605
P          1.82435       -0.28381       -0.25175
H         -2.76840        0.25411       -2.46985
P         -1.99905       -0.97120       -0.58496
H         -3.03960       -2.83616       -1.73664
C         -1.91832       -3.80052       -0.15240
C         -2.09482       -2.70556       -1.20963
C         -3.14915       -3.95349        0.74211
H         -3.60825        0.64307        0.16834
C         -4.87472       -1.02435       -0.34615
C         -3.57625       -0.44505        0.22152
H         -4.79291       -2.12429       -0.31969
C         -6.06056       -0.62051        0.53603
H          3.54058       -1.92876       -0.64475
H          2.72311        0.54929        1.83372
C          3.60046        3.13655        1.41006
C          2.71891        2.25102        0.51070
C          2.96395        0.76203        0.78685
C          4.44461        0.42332        0.55600
C          5.35827        1.30190        1.43614
C          5.08955        2.80129        1.20060
H          3.33181        2.96708        2.46011
H          3.40498        4.20177        1.22314
H          2.95926        2.45551       -0.54001
H          1.65546        2.49447        0.61446
H          4.63331       -0.64131        0.74456
H          4.68349        0.58386       -0.50202
H          5.17965        1.06345        2.49205
H          6.41592        1.06289        1.25688
H          5.37991        3.06502        0.17581
H          5.72328        3.41848        1.85310
C          2.30211       -4.30402       -1.37111
C          1.72299       -2.87710       -1.29102
C          2.50643       -2.01572       -0.29296
C          2.52959       -2.67592        1.09469
C          3.12265       -4.09617        1.02321
C          2.33787       -4.96413        0.02077
H          3.32047       -4.25782       -1.77659
H          1.73209       -4.91777       -2.08240
H          0.67849       -2.92029       -0.96625
H          1.70428       -2.40158       -2.28102
H          3.07329       -2.04864        1.81367
H          1.50626       -2.73702        1.48145
H          4.17212       -4.03567        0.70948
H          3.13880       -4.56297        2.01802
H          1.31185       -5.09822        0.38556
H          2.76304       -5.97609       -0.03717
H         -1.06667       -3.50695        0.48742
C         -1.57698       -5.13973       -0.81379
H         -3.50107       -0.69460        1.27970
C         -5.12292       -0.61172       -1.79747
H         -1.31188       -2.80211       -1.96216
H         -2.99324       -4.72017        1.50265
H         -4.01912       -4.24937        0.15538
H         -3.39155       -3.02557        1.25846
H         -1.40092       -5.91963       -0.07128
H         -2.39697       -5.47144       -1.45145
H         -0.68666       -5.06544       -1.43933
H         -6.18055        0.46336        0.54360
H         -6.99514       -1.05295        0.17528
H         -5.91910       -0.94239        1.56906
H         -5.11865        0.47411       -1.89700
H         -4.36915       -1.01794       -2.47191
H         -6.09344       -0.96671       -2.14819
Fe        -1.05816        2.69448        0.18044
C         -2.58723        2.92604        1.56759
C         -1.76572        4.11950        1.47041
C         -0.39582        3.75708        1.78679
C         -0.37578        2.33880        2.08378
C         -1.72455        1.82732        1.94732
H         -3.66833        2.87489        1.41985
H         -2.12399        5.12579        1.24015
H          0.45667        4.43916        1.83533
H          0.48155        1.75722        2.42477
H         -2.02740        0.80131        2.16208
Pd        -0.17826       -0.78704        0.88243
