64
-97.21439266
Cl        -1.59904       -1.25732       -2.58229
Cl         1.54075       -1.24288       -2.95506
P          1.94788       -0.67374        0.25072
C          2.13731       -2.35003        1.01400
C          3.73332       -0.28348       -0.08056
P         -1.28319       -0.12362        0.45283
C          1.29075        0.56030        1.42866
C         -0.13041        0.83831        1.50394
C         -0.33092        1.95519        2.41580
C          0.97768        2.40640        2.85467
C          1.97895        1.54873        2.24423
H         -1.29153        2.35917        2.74109
H          1.17349        3.22648        3.54974
Pd         0.15520       -0.93410       -1.22019
H          3.06017        1.62135        2.38057
C         -5.02239        2.13348       -0.87902
C         -4.05549        2.79646       -0.15043
C         -2.91913        2.12372        0.25829
C         -2.74542        0.79663       -0.06510
C         -3.71282        0.13413       -0.78617
C         -4.85318        0.80096       -1.19692
H         -5.90885        2.65599       -1.19988
H         -4.18483        3.83692        0.09903
H         -2.16050        2.63678        0.82166
H         -3.56857       -0.90487       -1.03443
H         -5.60529        0.28066       -1.76697
C         -2.61673       -3.93498        2.52979
C         -2.37608       -2.79499        3.27232
C         -1.97819       -1.63108        2.63880
C         -1.82265       -1.62027        1.27213
C         -2.06731       -2.75035        0.52704
C         -2.46501       -3.91490        1.15689
H         -2.92631       -4.84205        3.02287
H         -2.49626       -2.81135        4.34311
H         -1.78041       -0.73262        3.20183
H         -1.95322       -2.70924       -0.54455
H         -2.65704       -4.80273        0.57711
C          4.07970       -0.36345       -1.55115
H          3.91548        0.72927        0.30202
C          4.47223       -1.33887        0.76572
H          4.67055       -0.94079        1.77172
C          3.64392       -2.64615        0.88289
H          5.45933       -1.54234        0.32536
C          1.64817       -2.33140        2.44593
H          1.54029       -3.04715        0.41010
H          3.97866       -3.24182        1.74433
H          3.82745       -3.27439       -0.00083
H          2.21816       -1.61122        3.03636
H          0.59740       -2.04168        2.50308
H          1.75446       -3.30998        2.92007
H          5.14156       -0.17435       -1.72310
H          3.85338       -1.35657       -1.94259
H          3.51276        0.35731       -2.14223
Fe         0.85655        2.46202        0.83595
C          2.22608        3.18104       -0.47984
C          1.41184        4.25538        0.06542
C          0.02207        4.00262       -0.27705
C         -0.02585        2.72610       -0.96759
C          1.32910        2.22858       -1.10613
H          3.31539        3.10937       -0.43468
H          1.78930        5.14067        0.58281
H         -0.82927        4.64577       -0.04423
H         -0.91600        2.25743       -1.39256
H          1.61555        1.33052       -1.65694
