111
-148.55142223
P         -2.55470        2.07524        0.78269
P          0.14592        0.44689        0.47135
C         -1.45671        1.85376        2.21351
C         -0.26493        1.17909        2.06352
C         -3.49275        3.66630        0.94284
C         -3.37614        4.51745       -0.30193
C         -1.81491        2.34237        3.45436
H         -2.75673        2.85143        3.57600
C         -0.97214        2.16173        4.53755
H         -1.25222        2.54416        5.50552
C          0.22435        1.48907        4.38112
H          0.87906        1.34554        5.22488
C          0.57656        0.99084        3.13990
H          1.49832        0.44695        3.00334
Pd        -1.29705        1.41383       -1.05199
Cl        -2.93297        2.23250       -2.34774
Cl        -0.01590        0.72323       -2.76332
C         -4.92972        3.19028        1.24192
C         -3.95585        0.86523        0.76362
H         -3.88870        5.47502       -0.18359
H         -2.33152        4.71955       -0.54947
H         -3.82537        4.01032       -1.15660
H         -5.64869        3.91627        0.83494
H         -5.10303        3.18023        2.32805
H         -3.83832        0.25691       -0.14391
C         -5.19977        1.77186        0.66572
C         -3.92425       -0.01386        1.99485
H         -3.06402        4.19948        1.80187
H         -6.04330        1.29576        1.18651
H         -5.51264        1.86159       -0.38502
H         -2.98519       -0.56783        2.05955
H         -4.01361        0.58853        2.90079
H         -4.74361       -0.73668        1.99412
C         -1.14747       -3.92176        0.33571
C         -1.00313       -3.27542        1.59052
C         -0.59163       -1.95302        1.60471
C         -0.40167       -1.26027        0.43804
C         -0.64913       -1.84984       -0.77310
C         -1.05830       -3.16767       -0.86170
O         -1.34169       -5.32752        0.27864
C         -1.25235       -3.99772        2.92394
H         -0.40533       -1.44486        2.53406
H         -0.50525       -1.25800       -1.65995
C         -1.36369       -3.75668       -2.24727
C          4.51993        0.81058       -0.75554
C          3.76825       -0.33769       -1.11840
C          2.44187       -0.39882       -0.72824
C          1.87849        0.58265        0.04414
C          2.63055        1.63763        0.49133
C          3.96906        1.75558        0.15157
O          5.78131        1.05217       -1.35782
C          4.32930       -1.52218       -1.92299
H          1.82317       -1.22067       -1.04396
H          2.15673        2.37862        1.11251
C          4.77866        2.89253        0.79864
C         -1.72103       -3.00137        4.00888
C         -2.36055       -5.05673        2.78057
C          0.05221       -4.65715        3.39593
C         -0.06929       -4.31864       -2.85496
C         -2.43461       -4.85884       -2.16021
C         -1.91853       -2.66425       -3.19095
C         -0.13415       -6.07455        0.19835
H         -2.00615       -3.52809        4.91931
H         -0.93462       -2.29866        4.28009
H         -2.58644       -2.43453        3.66752
H         -3.27688       -4.60428        2.40283
H         -2.06895       -5.84509        2.09101
H         -2.58290       -5.52376        3.73970
H         -0.09037       -5.16730        4.34824
H          0.40806       -5.38796        2.67375
H          0.83571       -3.91099        3.52631
H          0.35452       -5.09948       -2.22778
H         -0.25278       -4.74129       -3.84239
H          0.67974       -3.53385       -2.95811
H         -3.34079       -4.47647       -1.69156
H         -2.69570       -5.23081       -3.15062
H         -2.08749       -5.70479       -1.57250
H         -2.26120       -3.10047       -4.12882
H         -2.76244       -2.14857       -2.73342
H         -1.16111       -1.92345       -3.44235
H          0.72879       -5.40808        0.22965
H         -0.08293       -6.77532        1.03156
H         -0.11730       -6.64665       -0.72907
C          5.68172        1.80330       -2.55629
C          3.90508       -2.84819       -1.25182
C          3.76120       -1.47923       -3.35154
C          5.86656       -1.51738       -1.97807
C          4.47708        2.93858        2.31335
C          6.29653        2.68805        0.65033
C          4.37626        4.23411        0.16469
H          2.82588       -2.98970       -1.27612
H          4.35408       -3.70132       -1.75979
H          4.22436       -2.87104       -0.21030
H          2.67222       -1.51378       -3.33867
H          4.05634       -0.56612       -3.86472
H          4.11757       -2.32518       -3.93866
H          6.24488       -2.41292       -2.47046
H          6.23878       -0.65725       -2.52940
H          6.28685       -1.47759       -0.97376
H          5.09674        3.68464        2.81025
H          3.43822        3.19607        2.51260
H          4.67933        1.97245        2.77492
H          6.60229        2.74424       -0.39168
H          6.85107        3.44995        1.19765
H          6.59187        1.71162        1.03273
H          3.31034        4.42062        0.29164
H          4.59008        4.24541       -0.90225
H          4.91861        5.06001        0.62425
H          6.67752        1.94188       -2.97784
H          5.05549        1.27786       -3.27544
H          5.23862        2.77644       -2.35197
