72
-98.10389813
Fe         0.02459        2.81644       -0.03056
P          1.84493       -0.02836       -0.07506
P         -1.85536       -0.02287        0.07229
C          1.42292        1.59357        0.67019
C          0.43695        1.80355        1.71551
C          0.36072        3.23357        1.95510
C          1.36722        3.89164        1.14103
C          2.04585        2.87241        0.36009
C         -1.41917        1.57527       -0.71207
C         -2.00461        2.87353       -0.41663
C         -1.31706        3.86425       -1.22651
C         -0.34180        3.17518       -2.05126
C         -0.42013        1.75815       -1.74857
C          3.20099       -0.77900        0.95058
C          4.40223        0.07353        0.50758
C          2.89333        0.27922       -1.58307
C          4.31531        0.46210       -0.99781
C         -3.22170       -0.78206       -0.93213
C         -4.41388        0.08927       -0.50159
C         -2.89338        0.32720        1.57749
C         -4.31715        0.50678        0.99545
H         -0.17456        1.03206        2.18003
H         -0.30064        3.72404        2.67313
H          1.58320        4.96209        1.12614
H          2.84713        3.03830       -0.36239
H         -2.79649        3.06936        0.30869
H          0.17367        0.96641       -2.20176
Cl         1.53253       -3.05435       -0.40666
Cl        -1.56116       -3.04976        0.42660
Pd        -0.00658       -1.46553        0.03128
H          3.33224       -1.81335        0.61185
C          2.93159       -0.74838        2.45666
H          2.53144        1.20403       -2.04807
C          2.83161       -0.87272       -2.58449
H          5.34686       -0.44737        0.72896
H          4.42025        0.98392        1.12475
H          4.66479        1.49430       -1.14781
H          5.01450       -0.15955       -1.57431
H         -1.51925        4.93751       -1.23421
H          0.32080        3.63777       -2.78591
H          3.89132       -0.71676        2.99111
H          3.65053       -0.76160       -3.30897
H         -3.36041       -1.80849       -0.57301
C         -2.95618       -0.78258       -2.43847
H         -2.52327        1.25977        2.01994
C         -2.83187       -0.80341        2.60329
H         -5.36380       -0.42787       -0.70871
H         -4.42677        0.98741       -1.13659
H         -4.65955        1.54394        1.12656
H         -5.01718       -0.09917        1.58742
H         -3.91712       -0.77225       -2.97158
H         -3.04066       -1.75031        2.08839
C          2.11972       -1.93867        2.94439
H          1.18028       -2.03029        2.40185
H          2.66090       -2.87399        2.78927
H          1.88259       -1.86812        4.00832
C          1.51198       -0.98090       -3.32721
H          1.30861       -0.08130       -3.91120
H          1.49784       -1.82847       -4.01627
H          0.68462       -1.11500       -2.63288
C         -2.13309       -1.97551       -2.89967
H         -1.19444       -2.04666       -2.35275
H         -2.66601       -2.91221       -2.72547
H         -1.89419       -1.92544       -3.96435
C         -1.51460       -0.89159        3.35337
H         -0.68310       -1.03641        2.66620
H         -1.31709        0.02056        3.91964
H         -1.50037       -1.72473        4.05981
H          2.43201        0.19527        2.71015
H          3.04485       -1.80788       -2.05039
H         -2.46584        0.15984       -2.71386
H         -3.65353       -0.67930        3.32257
