87
-129.18502113
P         -1.52647       -0.30104       -0.38182
P          1.69134        0.38570        0.07502
C         -1.18175        0.93035       -1.64292
C          1.56328       -0.71976       -1.35145
C         -0.12148        0.73049       -2.51788
C          0.14115        1.70653       -3.50009
C         -0.67208        2.82554       -3.57306
C         -1.72213        3.00185       -2.69664
C         -1.97400        2.04862       -1.72994
C          2.30327       -1.87586       -1.26953
C          2.20459       -2.84410       -2.24917
C          1.34222       -2.65621       -3.30660
C          0.57719       -1.50721       -3.40711
C          0.69843       -0.50658       -2.42338
Cl         1.07175        0.22785        3.26490
Cl        -1.50001       -1.67017        2.55369
H         -2.34146        3.88130       -2.76269
H         -2.79595        2.17466       -1.04510
H          2.95786       -2.02741       -0.42683
H          2.78840       -3.74722       -2.17859
H         -0.46890        3.56912       -4.32495
H          1.24760       -3.41449       -4.06536
C         -2.24234       -4.33462       -2.33995
C         -1.34229       -4.24376       -1.28697
C         -1.14793       -3.00607       -0.68616
C         -1.83761       -1.90095       -1.12707
C         -2.73407       -1.99974       -2.16502
C         -2.93991       -3.22411       -2.77347
H         -2.39047       -5.28614       -2.82151
C         -0.56049       -5.42889       -0.84192
H         -0.44557       -2.90855        0.12438
H         -3.25497       -1.11731       -2.50251
H         -3.63672       -3.30863       -3.59120
C         -5.08885        1.02974        2.12990
C         -5.16545       -0.13971        1.39939
C         -4.09006       -0.54520        0.63187
C         -2.95031        0.22289        0.59562
C         -2.87081        1.38613        1.32596
C         -3.93793        1.80551        2.10989
H         -5.92598        1.34780        2.72763
H         -6.06084       -0.73864        1.43062
H         -4.13156       -1.46196        0.06703
H         -1.97278        1.97836        1.28734
C         -3.84693        3.07255        2.88521
C          5.65597       -0.25486        2.21888
C          5.48559        0.83682        1.39061
C          4.27929        1.02988        0.74373
C          3.25324        0.13332        0.93164
C          3.42218       -0.95665        1.75412
C          4.62969       -1.17014        2.40769
H          6.59119       -0.40220        2.73167
H          6.29010        1.54024        1.25123
H          4.13020        1.88010        0.09818
H          2.60444       -1.64129        1.90797
C          4.79264       -2.32829        3.32787
C          0.88204        4.79959       -0.63432
C          1.73299        4.12095       -1.48491
C          1.99877        2.78127       -1.27120
C          1.40765        2.13421       -0.21222
C          0.58995        2.81666        0.65912
C          0.30721        4.16159        0.45627
H          0.65995        5.83840       -0.80974
H          2.17899        4.63083       -2.32303
H          2.64678        2.23110       -1.93463
H          0.19656        2.30885        1.52323
C         -0.62407        4.88530        1.36346
Pd        -0.04308       -0.39543        1.42311
C          1.27455        1.56457       -4.45560
C         -0.36436       -1.36431       -4.55263
H          0.91231        1.31722       -5.45420
H          1.84220        2.49357       -4.52601
H          1.96526        0.78042       -4.14356
H         -0.90932       -2.29356       -4.72476
H         -1.10212       -0.58247       -4.36963
H          0.17223       -1.11567       -5.46899
H          0.38240       -5.49632       -1.38653
H         -0.33039       -5.36930        0.22286
H         -1.11483       -6.35322       -1.01025
H         -2.86837        3.17010        3.35770
H         -3.99601        3.93626        2.23567
H         -4.59992        3.11005        3.67357
H          5.84261       -2.60400        3.43553
H          4.40242       -2.09117        4.31857
H          4.25630       -3.20250        2.95588
H         -0.34410        5.93527        1.45911
H         -1.64553        4.84147        0.98276
H         -0.61804        4.44832        2.36306
