64
-97.20485586
Cl        -1.58518       -1.70203       -2.43096
Cl         1.59210       -1.67072       -2.86711
P          1.97728       -0.59051        0.21848
C          2.34338       -2.21104        1.03269
C          3.70837       -0.09927       -0.25343
P         -1.23773       -0.15800        0.41706
C          1.30523        0.63167        1.39720
C         -0.12651        0.83271        1.48542
C         -0.36296        1.93451        2.40741
C          0.93027        2.40460        2.87599
C          1.96575        1.57226        2.28803
H         -1.33315        2.35604        2.67487
H          1.09361        3.21766        3.58710
Pd         0.20155       -1.11727       -1.20477
H          3.04232        1.66382        2.44229
C         -4.73229        2.44167       -0.92043
C         -4.42180        2.32500        0.41996
C         -3.37202        1.51577        0.81672
C         -2.63640        0.83396       -0.12619
C         -2.96292        0.92787       -1.46005
C         -4.00696        1.73926       -1.86194
H         -5.54848        3.07340       -1.23118
H         -4.99554        2.86286        1.15678
H         -3.13066        1.40268        1.86114
H         -2.41327        0.34656       -2.18028
H         -4.25860        1.81567       -2.90707
C         -2.84466       -3.77065        2.65688
C         -2.42079       -2.65653        3.35514
C         -1.93456       -1.55758        2.66951
C         -1.87339       -1.58408        1.29506
C         -2.29953       -2.68879        0.59625
C         -2.78625       -3.78872        1.27699
H         -3.22369       -4.62728        3.19006
H         -2.46772       -2.64237        4.43166
H         -1.59583       -0.68085        3.19831
H         -2.24613       -2.68046       -0.48005
H         -3.11906       -4.65638        0.73138
C          3.86519        0.16123       -1.73632
H          3.92086        0.80975        0.32375
C          4.57800       -1.26861        0.24887
H          5.53979       -0.89466        0.63036
C          3.84995       -2.11752        1.32339
H          4.83336       -1.90964       -0.60569
C          1.48853       -2.42313        2.26266
H          2.14776       -2.98662        0.28011
H          3.99124       -1.66039        2.31259
H          4.28942       -3.12404        1.39701
H          0.42962       -2.47257        2.00484
H          1.75221       -3.34998        2.77697
H          1.61705       -1.60183        2.97015
H          4.88345        0.47165       -1.98030
H          3.65337       -0.74207       -2.30908
H          3.18433        0.93634       -2.08884
Fe         0.80094        2.49248        0.83432
C          2.02504        3.11191       -0.68853
C          1.46019        4.25675        0.00548
C          0.01533        4.20185       -0.12279
C         -0.30710        2.98550       -0.84373
C          0.92721        2.32499       -1.21980
H          3.09037        2.90407       -0.80920
H          2.02824        5.05062        0.49588
H         -0.69877        4.92429        0.27706
H         -1.31158        2.66102       -1.11467
H          1.00967        1.41919       -1.82302
