111
-148.55507883
P         -2.75185        1.81823       -0.28834
P          0.14203        0.61177        0.17885
C         -1.83504        2.23087        1.22177
C         -0.55313        1.75291        1.39038
C         -3.77546        3.24324       -0.87782
C         -3.12661        3.95895       -2.04236
C         -2.41004        3.01605        2.20068
H         -3.41953        3.37144        2.07511
C         -1.69351        3.32763        3.34342
H         -2.14190        3.94099        4.10786
C         -0.40655        2.85208        3.50680
H          0.14993        3.09220        4.39779
C          0.16354        2.05720        2.52893
H          1.15967        1.66135        2.64941
Pd        -1.19339        0.86185       -1.69976
Cl        -2.75190        0.99154       -3.30797
Cl         0.41043       -0.10633       -2.93487
C         -5.12607        2.57643       -1.19669
C         -4.06935        0.53779       -0.05610
H         -3.73554        4.79928       -2.38368
H         -2.13967        4.34196       -1.77229
H         -2.99480        3.28454       -2.88912
H         -5.12869        2.27431       -2.25315
H         -5.94711        3.30235       -1.09398
H         -3.91591       -0.20206       -0.85325
C         -5.36950        1.32774       -0.30092
C         -3.97675       -0.11409        1.30656
H         -3.88266        3.92357       -0.02360
H         -5.77611        1.64759        0.66832
H         -6.13746        0.67349       -0.74073
H         -3.02046       -0.62400        1.43652
H         -4.06048        0.63157        2.09929
H         -4.77254       -0.84790        1.45393
C         -1.21987       -3.57855        1.32685
C         -0.83183       -3.30369       -0.00926
C         -0.41677       -2.02079       -0.31768
C         -0.32671       -1.05322        0.64684
C         -0.58998       -1.34410        1.95929
C         -0.99747       -2.61126        2.34066
O         -1.87159       -4.80094        1.63959
C         -0.90759       -4.35084       -1.13015
H         -0.17313       -1.74609       -1.32891
H         -0.49256       -0.55664        2.68582
C         -1.22705       -2.90074        3.83178
C          4.67672        0.91496       -0.07735
C          3.87655        1.60382       -1.02503
C          2.49864        1.52340       -0.90492
C          1.92060        0.73291        0.05280
C          2.68891       -0.01942        0.90269
C          4.07177        0.02017        0.84158
O          6.07776        1.14365       -0.02887
C          4.48108        2.43360       -2.16876
H          1.85296        2.07239       -1.56836
H          2.18710       -0.64662        1.61945
C          4.88691       -0.88835        1.77530
C         -2.29064       -4.27846       -1.79529
C          0.17058       -4.07808       -2.20400
C         -0.65190       -5.76756       -0.58545
C         -0.96338       -4.38179        4.15857
C         -0.25528       -2.06942        4.70043
C         -2.66816       -2.52310        4.20705
C         -3.28917       -4.73812        1.54282
H         -2.37242       -5.00152       -2.60633
H         -3.08322       -4.48437       -1.07980
H         -2.46729       -3.28562       -2.20871
H          1.15703       -3.99088       -1.74942
H          0.20696       -4.88931       -2.93063
H         -0.03348       -3.16302       -2.75792
H         -0.64318       -6.50149       -1.39088
H          0.30868       -5.81397       -0.07349
H         -1.42153       -6.06533        0.12228
H         -1.66546       -5.03306        3.64419
H          0.04261       -4.66846        3.85390
H         -1.06121       -4.57088        5.22729
H          0.77519       -2.21716        4.37808
H         -0.47990       -1.00494        4.65275
H         -0.32404       -2.36375        5.74744
H         -2.86074       -2.71811        5.26169
H         -2.85016       -1.46476        4.02161
H         -3.38923       -3.09011        3.62287
H         -3.63912       -5.47592        0.82097
H         -3.73336       -4.97059        2.51050
H         -3.60561       -3.74298        1.22749
C          6.46191        2.21066        0.82894
C          5.81875        1.83446       -2.64001
C          3.53657        2.44158       -3.39276
C          4.68627        3.88068       -1.69660
C          5.16465       -0.14674        3.09148
C          4.10543       -2.18392        2.09466
C          6.21109       -1.31453        1.11586
H          6.21451        2.38255       -3.49465
H          6.56776        1.86785       -1.85272
H          5.68971        0.79349       -2.93447
H          3.26146        1.42604       -3.67645
H          2.62338        3.00043       -3.19417
H          4.01792        2.91050       -4.25060
H          5.36451        3.92590       -0.84791
H          5.10304        4.49596       -2.49359
H          3.73943        4.32329       -1.38816
H          5.73414       -0.77155        3.77905
H          5.73123        0.76502        2.91813
H          4.23159        0.13103        3.58136
H          3.77736       -2.67463        1.17862
H          4.73006       -2.88673        2.64553
H          3.22918       -1.98593        2.71029
H          6.02369       -1.80202        0.15971
H          6.75893       -2.01075        1.75037
H          6.85649       -0.45902        0.93285
H          7.00114        2.96440        0.25544
H          5.58345        2.66352        1.29035
H          7.12719        1.83398        1.60565
