111
-148.55195829
P         -2.53208        2.10590        0.90392
P          0.11372        0.40269        0.51073
C         -1.44477        1.78119        2.32029
C         -0.28009        1.06853        2.13680
C         -3.36630        3.74991        1.07991
C         -3.15651        4.60946       -0.14692
C         -1.78170        2.23157        3.58104
H         -2.70076        2.77555        3.72491
C         -0.94508        1.97131        4.65281
H         -1.20810        2.32294        5.63709
C          0.22426        1.26002        4.46357
H          0.87445        1.05575        5.29825
C          0.55627        0.80362        3.20063
H          1.45868        0.23565        3.03577
Pd        -1.31243        1.48914       -0.96217
Cl        -2.94493        2.26783       -2.27738
Cl         0.15304        0.88255       -2.56012
C         -4.83960        3.36575        1.33129
C         -4.00576        0.98833        0.85105
H         -3.61797        5.59313       -0.03198
H         -2.09369        4.75513       -0.35390
H         -3.60166        4.13965       -1.02494
H         -5.49730        4.14217        0.91396
H         -5.04479        3.35436        2.41186
H         -3.90712        0.37373       -0.05447
C         -5.18501        1.97482        0.72835
C         -4.05798        0.11108        2.08255
H         -2.92619        4.23605        1.96091
H         -6.07311        1.54913        1.21785
H         -5.45896        2.09683       -0.33001
H         -4.91753       -0.56315        2.06001
H         -3.15372       -0.49482        2.17244
H         -4.13697        0.71905        2.98572
C         -1.15230       -3.95522        0.11123
C         -1.15715       -3.34840        1.39619
C         -0.76331       -2.02404        1.49780
C         -0.45651       -1.29157        0.38111
C         -0.58125       -1.83680       -0.86893
C         -0.96513       -3.15354       -1.04558
O         -1.24573       -5.36535       -0.01212
C         -1.57333       -4.07796        2.68475
H         -0.67508       -1.55318        2.46144
H         -0.35403       -1.21428       -1.71744
C         -1.16590       -3.65078       -2.48630
C          4.49912        0.71397       -0.67510
C          3.83923       -0.54025       -0.71901
C          2.50641       -0.58976       -0.35032
C          1.85296        0.52360        0.10869
C          2.51140        1.71706        0.24522
C          3.84867        1.83599       -0.09908
O          5.79455        0.85358       -1.24047
C          4.52415       -1.82889       -1.20046
H          1.95049       -1.50648       -0.43602
H          1.95804        2.56277        0.61587
C          4.55963        3.18059        0.12099
C         -0.32422       -4.36782        3.53313
C         -2.53794       -3.18405        3.49469
C         -2.31713       -5.39413        2.39841
C         -1.91573       -4.99257       -2.54404
C         -2.01531       -2.62269       -3.26707
C          0.20374       -3.79482       -3.17096
C          0.02034       -6.00314        0.02421
H          0.19756       -3.44531        3.78599
H         -0.59283       -4.86724        4.46366
H          0.37443       -5.00844        2.99837
H         -2.89441       -3.70388        4.38360
H         -2.05742       -2.26564        3.82777
H         -3.40614       -2.91449        2.89420
H         -2.68746       -5.84460        3.31901
H         -3.16668       -5.21972        1.73906
H         -1.66495       -6.11900        1.91706
H         -1.32919       -5.79163       -2.09699
H         -2.85952       -4.92867       -2.00363
H         -2.13130       -5.27819       -3.57336
H         -2.96075       -2.43897       -2.75755
H         -1.50102       -1.66914       -3.37431
H         -2.23846       -2.98475       -4.27023
H          0.82965       -4.51827       -2.65188
H          0.09045       -4.12728       -4.20242
H          0.73475       -2.84352       -3.18213
H          0.51252       -5.80342        0.97461
H         -0.11527       -7.07857       -0.09220
H          0.65075       -5.63019       -0.78144
C          5.78962        1.21557       -2.61580
C          6.02084       -1.82851       -0.84137
C          3.89689       -3.06872       -0.52108
C          4.34118       -1.96241       -2.71997
C          3.95306        3.92626        1.33155
C          6.05481        2.97629        0.42606
C          4.38824        4.05590       -1.12983
H          6.55021       -1.02477       -1.34688
H          6.15780       -1.69537        0.23124
H          6.49339       -2.76705       -1.13001
H          4.46453       -3.96823       -0.75830
H          3.88846       -2.95468        0.56259
H          2.87485       -3.24005       -0.85618
H          4.80005       -2.87893       -3.08990
H          3.28301       -1.98554       -2.97918
H          4.79120       -1.12472       -3.24692
H          3.94198        3.28748        2.21434
H          4.53590        4.81585        1.56943
H          2.93434        4.25601        1.13349
H          6.54321        3.92537        0.64565
H          6.18464        2.32078        1.28653
H          6.57460        2.52704       -0.41633
H          4.82175        3.58062       -2.00634
H          4.87078        5.02404       -0.99845
H          3.33244        4.22956       -1.33642
H          6.31654        2.16041       -2.74762
H          6.30882        0.45341       -3.19659
H          4.76575        1.31566       -2.97849
