111
-148.55977429
P         -2.57490        2.21080        0.43061
P          0.00190        0.38827        0.45746
C         -1.67686        1.95384        1.98460
C         -0.53554        1.18230        1.98376
C         -3.27289        3.92179        0.32578
C         -2.46608        4.79554       -0.60965
C         -2.12764        2.51453        3.16280
H         -3.03361        3.09784        3.16420
C         -1.42239        2.31137        4.33644
H         -1.77261        2.75022        5.25644
C         -0.27237        1.54566        4.33067
H          0.27682        1.38747        5.24422
C          0.16974        0.97479        3.15085
H          1.06141        0.36820        3.13179
Pd        -1.18981        1.41722       -1.23808
Cl        -2.62934        2.29250       -2.71982
Cl         0.21501        0.57965       -2.77040
C         -4.72477        3.66549       -0.11928
C         -4.12750        1.21096        0.31447
H         -2.88199        5.80381       -0.67240
H         -1.42742        4.87602       -0.28024
H         -2.45762        4.38061       -1.61829
H         -4.76822        3.70349       -1.21659
H         -5.38289        4.47512        0.23136
H         -4.10749        0.73200       -0.67344
C         -5.23571        2.27977        0.37036
C         -4.19341        0.17528        1.41693
H         -3.25472        4.33140        1.34347
H         -5.59094        2.36677        1.40636
H         -6.10988        1.95513       -0.21422
H         -3.34610       -0.51282        1.36809
H         -4.16712        0.65345        2.39784
H         -5.11251       -0.41250        1.35930
C         -1.13380       -4.02691        0.44126
C         -0.21804       -3.53106        1.40395
C          0.10918       -2.18539        1.36596
C         -0.49246       -1.33502        0.47526
C         -1.46203       -1.79024       -0.37992
C         -1.83211       -3.12375       -0.39953
O         -1.32094       -5.42673        0.29054
C          0.44224       -4.43020        2.46095
H          0.85785       -1.78368        2.02667
H         -1.91827       -1.09351       -1.05916
C         -2.94139       -3.57517       -1.36243
C          4.46844        0.75848       -0.35554
C          3.75787       -0.39758       -0.77353
C          2.39845       -0.45676       -0.51740
C          1.76398        0.53245        0.18670
C          2.46681        1.59451        0.69287
C          3.83092        1.71398        0.48071
O          5.78104        0.99714       -0.83757
C          4.40221       -1.59697       -1.48846
H          1.80977       -1.28085       -0.88461
H          1.93381        2.33965        1.25859
C          4.57105        2.86509        1.18316
C          0.73881       -3.62723        3.74820
C         -0.48586       -5.59100        2.86279
C          1.76684       -4.97734        1.90809
C         -3.72316       -4.77013       -0.78763
C         -3.96368       -2.43863       -1.59330
C         -2.31508       -3.95044       -2.71403
C         -0.41865       -6.03475       -0.62543
H         -0.15728       -3.11801        4.10211
H          1.08583       -4.28615        4.54383
H          1.51663       -2.88189        3.58929
H         -1.44446       -5.21130        3.21477
H         -0.67836       -6.25466        2.02370
H         -0.04399       -6.18823        3.66000
H          2.25833       -5.62100        2.63717
H          1.60756       -5.55616        1.00142
H          2.44761       -4.16210        1.66546
H         -3.08571       -5.64319       -0.67252
H         -4.13357       -4.52463        0.19130
H         -4.54890       -5.04927       -1.44161
H         -4.34486       -2.06201       -0.64488
H         -3.52706       -1.60697       -2.14420
H         -4.81279       -2.79518       -2.17582
H         -3.07912       -4.26206       -3.42568
H         -1.78280       -3.10032       -3.14029
H         -1.60363       -4.76559       -2.60608
H         -0.98023       -6.51986       -1.42365
H          0.25034       -5.28724       -1.05383
H          0.16827       -6.79570       -0.11137
C          5.79312        1.72046       -2.05700
C          3.92407       -2.90703       -0.82303
C          3.97541       -1.59710       -2.96579
C          5.93765       -1.58036       -1.39567
C          4.12511        2.93543        2.66086
C          6.09673        2.66515        1.18453
C          4.22727        4.19361        0.48998
H          4.14957       -2.89887        0.24289
H          2.85173       -3.05485       -0.94000
H          4.42007       -3.77096       -1.26466
H          4.39431       -2.45399       -3.49265
H          2.89072       -1.64318       -3.05781
H          4.31181       -0.69433       -3.47196
H          6.36693       -2.48580       -1.82401
H          6.35599       -0.73246       -1.93271
H          6.25909       -1.50944       -0.35716
H          3.07151        3.19296        2.75497
H          4.28353        1.97778        3.15602
H          4.69295        3.69165        3.20231
H          6.50057        2.70412        0.17563
H          6.59406        3.43935        1.76836
H          6.35704        1.69712        1.61118
H          4.54351        4.18760       -0.55128
H          4.71961        5.03005        0.98540
H          3.15338        4.37663        0.50977
H          5.34278        2.70125       -1.91414
H          6.82307        1.84228       -2.39299
H          5.22699        1.18254       -2.81578
