111
-148.55357723
P         -2.26327        2.33962        0.97381
P         -0.02722        0.13840        0.56062
C         -1.33322        1.73068        2.40145
C         -0.34623        0.78928        2.21196
C         -2.44304        4.18023        1.03106
C         -1.54041        4.85446        0.02045
C         -1.60071        2.20495        3.66949
H         -2.38074        2.93523        3.81119
C         -0.87043        1.73490        4.74748
H         -1.07842        2.10317        5.73880
C          0.12551        0.79670        4.55401
H          0.69559        0.43249        5.39277
C          0.38927        0.32273        3.28128
H          1.16231       -0.41075        3.11217
Pd        -1.28913        1.42466       -0.90358
Cl        -2.69491        2.62332       -2.17022
Cl        -0.09363        0.48644       -2.56353
C         -3.95028        4.38495        0.79034
C         -4.04187        1.83345        0.98125
H         -1.78273        4.53072       -0.99280
H         -1.64598        5.94134        0.05297
H         -0.49072        4.60959        0.19985
H         -4.11674        4.54201       -0.28432
H         -4.29594        5.30742        1.28123
H         -4.26138        1.48772       -0.03783
C         -4.77743        3.15621        1.26684
C         -4.29558        0.73219        1.98869
H         -2.17446        4.48423        2.05105
H         -4.95963        3.23391        2.34751
H         -5.77389        3.14868        0.79952
H         -4.03828        1.06184        2.99684
H         -5.34601        0.43203        1.99653
H         -3.69119       -0.15168        1.76997
C         -1.15175       -4.26435        0.19650
C         -1.31278       -3.60364        1.44164
C         -0.95266       -2.26913        1.52834
C         -0.52716       -1.57796        0.42385
C         -0.49175       -2.18245       -0.80488
C         -0.82427       -3.51592       -0.96232
O         -1.28341       -5.67635        0.11771
C         -1.83883       -4.31869        2.69602
H         -0.99255       -1.75106        2.46973
H         -0.19956       -1.58424       -1.64925
C         -0.79083       -4.13151       -2.36974
C          4.21769        0.93470       -0.86318
C          3.74313       -0.40129       -0.81137
C          2.45078       -0.62051       -0.36642
C          1.67071        0.41464        0.07618
C          2.15844        1.69395        0.12474
C          3.44486        1.98310       -0.30035
O          5.44494        1.22736       -1.51523
C          4.57978       -1.60110       -1.28190
H          2.02532       -1.60805       -0.38250
H          1.50649        2.47211        0.48441
C          3.95570        3.42787       -0.18940
C         -2.84489       -5.42303        2.32391
C         -0.65723       -4.91893        3.47258
C         -2.58226       -3.32510        3.61816
C         -1.13288       -3.06789       -3.43847
C          0.61885       -4.67292       -2.65274
C         -1.83130       -5.25744       -2.50822
C         -0.06933       -6.38361        0.33738
H         -3.66504       -5.01249        1.73587
H         -2.37385       -6.20748        1.73682
H         -3.26557       -5.88680        3.21578
H          0.04606       -4.14007        3.76655
H         -0.99950       -5.42343        4.37580
H         -0.11558       -5.64276        2.86838
H         -1.90311       -2.59677        4.05886
H         -3.35253       -2.78654        3.06667
H         -3.06580       -3.84979        4.44187
H         -2.07007       -2.56579       -3.20006
H         -0.35219       -2.31337       -3.52209
H         -1.23939       -3.52676       -4.42106
H          1.35650       -3.87301       -2.59562
H          0.90131       -5.43527       -1.93061
H          0.67569       -5.11337       -3.64780
H         -1.85050       -5.65062       -3.52434
H         -1.61136       -6.08576       -1.83945
H         -2.82828       -4.88982       -2.26769
H          0.17097       -6.98034       -0.54238
H          0.74605       -5.68751        0.53841
H         -0.18810       -7.05896        1.18451
C          5.30723        1.51772       -2.90070
C          4.18503       -2.88003       -0.50784
C          4.32548       -1.83795       -2.77850
C          6.07968       -1.36773       -1.02650
C          3.57280        4.19898       -1.46189
C          3.31890        4.13815        1.02727
C          5.48047        3.46583        0.01839
H          4.86010       -3.70112       -0.74810
H          4.23205       -2.71203        0.56777
H          3.17872       -3.21132       -0.75957
H          4.61491       -0.97244       -3.36944
H          4.89016       -2.69693       -3.14002
H          3.26816       -2.02546       -2.96420
H          6.26128       -1.15850        0.02716
H          6.66544       -2.24356       -1.30454
H          6.45447       -0.52551       -1.60257
H          3.90796        5.23438       -1.40726
H          4.01760        3.74771       -2.34549
H          2.49178        4.20045       -1.60039
H          2.25172        4.30264        0.88641
H          3.45883        3.55189        1.93511
H          3.77391        5.11552        1.18637
H          5.83144        4.48792        0.15858
H          6.00873        3.05163       -0.83653
H          5.76220        2.88678        0.89719
H          4.26050        1.45073       -3.20032
H          5.68017        2.52144       -3.10369
H          5.89834        0.81119       -3.48313
