105
-153.06078490
Cl         0.37734        3.59858        1.65107
Pd        -0.17822        1.93138        0.24209
P         -0.70867        0.21828       -1.31447
N          0.16093       -1.19521       -1.94150
C          0.25864       -2.51873       -1.52326
C         -0.06962       -2.98304       -0.22025
C          0.26875       -4.30441        0.14612
C          0.17056       -4.72678        1.59412
C          0.01867       -6.24393        1.77010
C          1.12877       -6.97776        1.01119
C          1.09465       -6.63626       -0.48873
C          0.78677       -5.19011       -0.80220
C          1.02079       -4.73551       -2.09296
C          0.78647       -3.42981       -2.43775
H          1.01836       -3.08818       -3.43175
H          1.41763       -5.42095       -2.82278
H          2.05209       -6.89965       -0.95606
H          2.10202       -6.69016        1.42855
H          0.01700       -6.52070        2.83390
H          1.07907       -4.38893        2.10728
C         -0.68623       -2.10656        0.81097
C          0.11392       -1.10321        1.41670
C         -0.37604       -0.41772        2.52907
C         -1.63291       -0.68381        3.00725
C         -2.45090       -1.63345        2.40172
C         -3.82530       -1.86794        2.97150
C         -4.40125       -3.24148        2.59778
C         -4.29058       -3.47405        1.08811
C         -2.82969       -3.40047        0.61153
C         -1.98322       -2.35031        1.29693
H         -2.35929       -4.37998        0.74840
H         -4.88289       -2.71391        0.56691
H         -5.44330       -3.33663        2.93473
H         -4.49303       -1.07563        2.61298
H         -2.00847       -0.13853        3.85639
H          0.23079        0.34382        2.98360
N          1.27796       -0.72418        0.75338
P          1.79290        0.90374        1.00052
C          2.89100        1.42558       -0.30921
C          3.08902        2.77017       -0.51416
C          3.85159        3.19412       -1.58702
C          4.40566        2.27246       -2.46603
C          4.19697        0.91866       -2.23684
C          3.43462        0.49596       -1.16294
H          3.25072       -0.55294       -0.99530
H          4.62823        0.19776       -2.91023
C          5.23128        2.72405       -3.62000
H          4.00865        4.24571       -1.75548
H          2.61016        3.47751        0.14495
C          2.59011        0.98446        2.60449
C          3.35014       -0.09263        2.99391
C          3.98143       -0.07953        4.22549
C          3.85805        1.01579        5.07014
C          3.07610        2.08831        4.66254
C          2.44738        2.07131        3.43248
H          1.83362        2.89642        3.11471
H          2.96042        2.93557        5.31672
C          4.51458        1.02099        6.40680
H          4.57177       -0.92355        4.53882
H          3.43438       -0.94291        2.33501
H          1.14358       -0.83657       -0.25088
H          0.37915       -1.00332       -2.91142
C         -0.58459        1.37300       -2.68935
C          0.66395        1.85254       -3.00230
C          0.81752        2.74811       -4.04444
C         -0.28087        3.16187       -4.78532
C         -1.53538        2.66966       -4.45004
C         -1.68539        1.77434       -3.40721
H         -2.65935        1.39773       -3.14206
H         -2.39604        2.99779       -5.00745
C         -0.12303        4.15153       -5.88656
H          1.79317        3.13612       -4.28215
H          1.51405        1.53629       -2.42100
C         -2.44059       -0.21887       -1.16671
C         -2.94613       -1.11454       -2.07854
C         -4.29274       -1.43270       -2.05955
C         -5.13939       -0.85702       -1.12206
C         -4.61014        0.04732       -0.21145
C         -3.26498        0.36478       -0.23422
H         -2.86062        1.07993        0.46272
H         -5.26105        0.50991        0.51058
C         -6.59403       -1.17568       -1.11596
H         -4.69387       -2.12920       -2.77572
H         -2.28256       -1.55833       -2.80395
Cl        -1.88251        3.17475       -0.53397
H          0.34576       -7.26175       -0.98927
H         -0.95754       -6.55874        1.38055
H          1.05270       -8.06324        1.16653
H         -0.64809       -4.20007        2.09625
H         -4.74320       -4.43610        0.80965
H         -2.79419       -3.21915       -0.46963
H         -3.78851       -1.75214        4.06225
H         -3.84540       -4.02529        3.12773
H          5.07955        2.07921       -4.48682
H          4.97283        3.74166       -3.91632
H          6.29240        2.70613       -3.36783
H          3.85172        0.60253        7.16536
H          5.43141        0.42989        6.39770
H          4.77801        2.03467        6.71196
H          0.85809        4.06556       -6.35575
H         -0.87514        4.00098       -6.66226
H         -0.22765        5.16958       -5.50908
H         -7.14201       -0.49417       -1.76793
H         -6.77581       -2.19359       -1.46383
H         -7.01206       -1.08965       -0.11192
