72
-98.09350917
Fe         0.02176        2.77499        0.00037
P          1.92723       -0.07147        0.00888
P         -1.83470       -0.08068        0.05192
C          1.42907        1.54007        0.73787
C          0.38724        1.73979        1.73178
C          0.28683        3.16503        1.99088
C          1.30206        3.84550        1.20751
C          2.00289        2.84031        0.42672
C         -1.39694        1.54846       -0.67445
C         -1.96911        2.84169       -0.33293
C         -1.30888        3.85725       -1.13674
C         -0.33461        3.19438       -1.98440
C         -0.39062        1.77169       -1.69711
C          3.29229       -0.82034        1.03038
C          4.56535       -0.59816        0.18322
C          2.88624        0.21641       -1.55604
C          4.32006        0.36340       -1.00957
C         -3.09109       -0.85380       -1.06530
C         -4.36206       -0.07893       -0.68123
C         -2.97636        0.19066        1.49378
C         -4.36673        0.32811        0.82447
H         -0.25765        0.96596        2.14640
H         -0.40941        3.63937        2.68664
H          1.49717        4.92027        1.19861
H          2.81827        3.02682       -0.27510
H         -2.76363        3.01446        0.39616
H          0.20365        0.99474       -2.17566
Cl         1.65048       -3.04187       -0.26503
Cl        -1.55197       -3.03137        0.37084
Pd         0.05489       -1.47879        0.05419
H          3.07025       -1.89049        1.11822
C          3.37805       -0.21348        2.42791
H          2.52916        1.14985       -2.00744
C          2.77206       -0.93866       -2.55139
H          4.93527       -1.56243       -0.19447
H          5.36996       -0.21173        0.82455
H          4.49285        1.40051       -0.68613
H          5.04827        0.17864       -1.81364
H         -1.52220        4.92846       -1.11956
H          0.31800        3.67696       -2.71551
H          4.34156       -0.48474        2.88157
H          3.57196       -0.84302       -3.29879
H         -3.18955       -1.90738       -0.78084
C         -2.68410       -0.73763       -2.52823
H         -2.66913        1.12685        1.97522
C         -2.93727       -0.95452        2.50363
H         -5.26091       -0.66223       -0.93408
H         -4.41544        0.82324       -1.30789
H         -4.74884        1.35316        0.94075
H         -5.08168       -0.30341        1.37028
H         -2.57244        0.32451       -2.78320
H         -3.14240       -1.89287        1.97211
C          2.24426       -0.65706        3.33739
H          1.27640       -0.40404        2.90823
H          2.25365       -1.73903        3.48259
H          2.29975       -0.19044        4.32346
C          1.43075       -1.03694       -3.25871
H          1.39831       -1.87797       -3.95514
H          0.61697       -1.17915       -2.54897
H          1.21617       -0.13295       -3.83156
C         -3.66821       -1.40791       -3.47465
H         -3.77441       -2.46945       -3.24343
H         -4.66073       -0.96057       -3.39732
H         -3.35293       -1.32824       -4.51750
C         -1.63406       -1.06543        3.27673
H         -0.79541       -1.26312        2.61027
H         -1.41513       -0.14511        3.82125
H         -1.66054       -1.87806        4.00630
H          3.39907        0.88039        2.33775
H          2.98917       -1.87437       -2.02032
H         -1.68356       -1.17178       -2.65633
H         -3.77214       -0.83496        3.20834
