105
-153.05895217
Cl         0.59643        3.67446        1.55078
Pd        -0.09640        1.98094        0.24175
P         -0.72964        0.30869       -1.32648
N          0.09107       -1.11361       -2.00024
C          0.16612       -2.44933       -1.60979
C         -0.15496       -2.94804       -0.31527
C          0.16178       -4.28777        0.00351
C          0.05561       -4.75938        1.43603
C         -0.11042       -6.27995        1.56360
C          0.98515       -7.00115        0.77289
C          0.93954       -6.61269       -0.71472
C          0.65284       -5.15239       -0.97789
C          0.87837       -4.66277       -2.25680
C          0.66245       -3.34367       -2.55823
H          0.88833       -2.97672       -3.54462
H          1.25339       -5.33226       -3.01254
H          1.88695       -6.87699       -1.20162
H          1.96512       -6.73578        1.18929
H         -0.10653       -6.59107        2.61788
H          0.96285       -4.44409        1.96539
C         -0.73866       -2.09654        0.75690
C          0.08284       -1.11157        1.36107
C         -0.37453       -0.43445        2.49102
C         -1.61999       -0.69694        2.99831
C         -2.45932       -1.63659        2.40695
C         -3.80979       -1.87432        3.04161
C         -4.74415       -2.81056        2.25490
C         -3.96423       -3.94482        1.58278
C         -2.90968       -3.36992        0.62762
C         -2.01964       -2.34370        1.28366
H         -2.30472       -4.17513        0.19529
H         -4.64185       -4.63132        1.05566
H         -5.27252       -2.23485        1.48576
H         -4.29571       -0.90273        3.19776
H         -1.96716       -0.16385        3.86717
H          0.25105        0.31332        2.94228
N          1.24892       -0.75769        0.69166
P          1.83686        0.84395        0.93025
C          3.04892        1.24852       -0.32298
C          3.99779        2.21050       -0.07203
C          4.90847        2.54752       -1.05710
C          4.87360        1.92169       -2.29631
C          3.89804        0.96293       -2.53329
C          2.98918        0.62665       -1.54808
H          2.20531       -0.08403       -1.75232
H          3.84757        0.48946       -3.49903
C          5.83121        2.30798       -3.36918
H          5.65003        3.30527       -0.87004
H          4.01550        2.69916        0.88927
C          2.58424        0.88518        2.56092
C          2.47178        1.97685        3.38726
C          3.06353        1.96117        4.63538
C          3.77892        0.85067        5.06307
C          3.87339       -0.24799        4.21925
C          3.27905       -0.22818        2.96955
H          3.34157       -1.08033        2.31061
H          4.41228       -1.12030        4.54748
C          4.39563        0.82004        6.41821
H          2.97075        2.81260        5.28778
H          1.91220        2.83326        3.05292
H          1.09844       -0.86098       -0.30944
H          0.22856       -0.92118       -2.98537
C         -0.71005        1.48346       -2.69849
C         -1.84711        1.72078       -3.43411
C         -1.82181        2.63374       -4.47204
C         -0.65367        3.31425       -4.78621
C          0.48217        3.07001       -4.02743
C          0.45200        2.15614       -2.99087
H          1.33327        1.97611       -2.40096
H          1.39021        3.60436       -4.24924
C         -0.63183        4.32176       -5.88241
H         -2.71450        2.82881       -5.04145
H         -2.75857        1.20268       -3.18756
C         -2.45448       -0.11188       -1.06933
C         -3.02107       -1.00393       -1.94884
C         -4.36740       -1.30898       -1.85191
C         -5.15065       -0.73191       -0.86228
C         -4.56046        0.16700        0.01632
C         -3.21780        0.47843       -0.09018
H         -2.76821        1.19220        0.57977
H         -5.16105        0.63001        0.78041
C         -6.60128       -1.05517       -0.76911
H         -4.81694       -2.00165       -2.54273
H         -2.40515       -1.45585       -2.71042
Cl        -1.78808        3.27374       -0.48641
H          0.17432       -7.20950       -1.22549
H         -1.09336       -6.57139        1.17255
H          0.89956       -8.09013        0.89549
H         -0.76441       -4.24633        1.94951
H         -3.46722       -4.55021        2.35110
H         -3.40884       -2.90116       -0.22576
H         -3.64700       -2.28199        4.04657
H         -5.53082       -3.21480        2.90740
H          6.05335        1.46222       -4.02143
H          5.41981        3.10905       -3.98483
H          6.77487        2.65759       -2.94811
H          4.65347        1.82446        6.75688
H          3.70934        0.38526        7.14615
H          5.31030        0.22552        6.42062
H         -1.35287        4.07180       -6.66193
H         -0.87874        5.31332       -5.50070
H          0.35330        4.37576       -6.34788
H         -7.15697       -0.57629       -1.57642
H         -6.76647       -2.13139       -0.83855
H         -7.02501       -0.71447        0.17661
