171
-217.83528397
P         -1.51308        0.10040       -0.06804
P          1.80821       -0.49936       -0.10858
C         -0.84655        1.34135       -1.19806
C          1.02562       -1.23083       -1.56541
C         -0.05181        0.91314       -2.25435
C          0.49636        1.86709       -3.13329
C          0.18376        3.20423       -2.95309
C         -0.61543        3.61176       -1.90591
C         -1.12027        2.67644       -1.02438
C          1.22869       -2.58357       -1.70598
C          0.62636       -3.27572       -2.73859
C         -0.19766       -2.60511       -3.61654
C         -0.42897       -1.24641       -3.48363
C          0.20161       -0.53744       -2.44410
Cl         1.41394       -1.72036        2.90534
Cl        -1.55983       -2.43391        2.18850
C         -1.35211       -0.57456       -4.43894
C          1.38885        1.45721       -4.25234
H         -0.83938        4.65751       -1.77274
H         -1.71654        2.99476       -0.18751
H          1.85587       -3.09989       -0.99410
H          0.79299       -4.33468       -2.84976
H          0.57347        3.93041       -3.64584
H         -0.68213       -3.14039       -4.41581
C         -4.41872       -2.48743       -2.38788
C         -3.55696       -3.10364       -1.48796
C         -2.67808       -2.29935       -0.77739
C         -2.65164       -0.94338       -0.97739
C         -3.50087       -0.35096       -1.87951
C         -4.40911       -1.11457       -2.60378
H         -5.13141       -3.08470       -2.92426
H         -2.02844       -2.73119       -0.03764
H         -3.44129        0.71412       -2.02148
C         -4.06457        2.13806        3.11786
C         -3.11019        1.21774        3.53310
C         -2.32630        0.61230        2.56182
C         -2.49370        0.90037        1.22797
C         -3.47271        1.78221        0.83929
C         -4.26344        2.43543        1.77523
H         -4.67588        2.62240        3.85456
H         -1.60304       -0.12227        2.86161
H         -3.62983        1.96388       -0.21005
C          2.32408        3.98936        0.24743
C          3.07383        3.28848       -0.68761
C          2.86578        1.91850       -0.78780
C          1.95623        1.28844        0.02559
C          1.23949        1.99566        0.96339
C          1.40170        3.37092        1.08168
H          2.47658        5.04879        0.34087
H          3.42348        1.32705       -1.49264
H          0.54785        1.47113        1.59734
C          6.02765       -2.15054        0.02829
C          5.30934       -2.08785        1.21625
C          4.01299       -1.59370        1.16560
C          3.46856       -1.17980       -0.02279
C          4.19265       -1.24820       -1.18778
C          5.49121       -1.74052       -1.18678
H          7.02972       -2.53513        0.05778
H          3.40360       -1.54796        2.04879
H          3.73484       -0.92517       -2.10839
Pd         0.01720       -1.13838        1.24396
C         -4.57772       -5.34699       -2.12558
C         -3.55574       -4.61712       -1.23352
C         -3.91195       -4.88185        0.24123
C         -2.15429       -5.17935       -1.53609
H         -5.59164       -5.00154       -1.92478
H         -4.35989       -5.18774       -3.18156
H         -4.55361       -6.42106       -1.94174
H         -4.89121       -4.46811        0.48074
H         -3.93534       -5.95086        0.45153
H         -3.18456       -4.42627        0.91209
H         -1.39840       -4.72443       -0.89695
H         -2.12216       -6.25665       -1.37499
H         -1.87831       -4.98428       -2.57201
C         -5.10685        1.01145       -3.81686
C         -5.43045       -0.47333       -3.55519
C         -6.82668       -0.56828       -2.91517
C         -5.43218       -1.20954       -4.90904
H         -5.81195        1.44121       -4.52822
H         -5.17081        1.59784       -2.90079
H         -4.10567        1.12684       -4.23134
H         -7.58274       -0.11471       -3.55582
H         -7.10906       -1.60675       -2.74437
H         -6.84518       -0.05488       -1.95389
H         -4.44453       -1.18270       -5.36748
H         -5.72350       -2.25295       -4.79827
H         -6.13418       -0.74501       -5.60141
C         -1.48233        1.04762        5.44565
C         -2.93597        0.80036        5.00144
C         -3.26437       -0.69880        5.13501
C         -3.87046        1.59337        5.93473
H         -1.23212        2.10534        5.37406
H         -1.33489        0.73936        6.48047
H         -0.77711        0.48949        4.83098
H         -2.59157       -1.30610        4.53055
H         -3.17242       -1.02862        6.16954
H         -4.28289       -0.90058        4.80435
H         -4.91663        1.41848        5.68445
H         -3.72613        1.29274        6.97241
H         -3.67251        2.66322        5.87028
C         -4.61523        4.55685        0.48838
C         -5.31512        3.44309        1.29069
C         -6.07061        4.09065        2.46686
C         -6.33445        2.71825        0.39206
H         -4.11911        4.15774       -0.39556
H         -5.33192        5.30758        0.15601
H         -3.86178        5.05516        1.09832
H         -6.80532        4.80992        2.10509
H         -6.60422        3.34123        3.05112
H         -5.38577        4.62245        3.12723
H         -6.82326        1.91141        0.93774
H         -7.10468        3.40523        0.04199
H         -5.85248        2.28431       -0.48304
C          4.88052        3.05468       -2.46345
C          4.11808        4.02403       -1.53955
C          5.13849        4.70901       -0.61107
C          3.41736        5.08218       -2.40941
H          5.40553        2.29647       -1.88301
H          4.20290        2.55416       -3.15418
H          5.62212        3.58805       -3.05794
H          5.62354        3.97629        0.03367
H          5.91208        5.21556       -1.18797
H          4.65988        5.45126        0.02655
H          2.87468        5.80203       -1.79779
H          4.13980        5.63210       -3.01230
H          2.70511        4.61230       -3.08569
C         -0.07613        5.38004        1.44026
C          0.64649        4.20547        2.12700
C          1.65486        4.74802        3.15544
C         -0.40630        3.36503        2.86958
H         -0.62727        5.97544        2.16800
H          0.62587        6.04158        0.93472
H         -0.78743        5.01664        0.70022
H          2.18151        3.92947        3.64579
H          2.39830        5.38634        2.67911
H          1.15182        5.33483        3.92383
H         -1.14022        2.96127        2.17452
H          0.05988        2.53698        3.40193
H         -0.94292        3.97009        3.60015
C          4.98800       -2.41068        3.72069
C          5.95081       -2.56640        2.52674
C          7.21454       -1.73311        2.80848
C          6.32636       -4.05378        2.39544
H          4.08294       -2.99994        3.57496
H          5.45735       -2.75077        4.64361
H          4.70179       -1.36855        3.86072
H          7.95222       -1.85094        2.01563
H          6.96812       -0.67399        2.88161
H          7.68119       -2.03677        3.74542
H          7.04832       -4.21133        1.59504
H          6.76636       -4.42810        3.31960
H          5.44443       -4.65447        2.17377
C          6.37769       -0.41573       -3.12340
C          6.26337       -1.82404       -2.51098
C          5.50341       -2.74924       -3.47991
C          7.68375       -2.38578       -2.30940
H          6.93865       -0.44060       -4.05746
H          5.39539        0.00392       -3.33717
H          6.89080        0.26013       -2.43963
H          6.03476       -2.84423       -4.42669
H          5.39252       -3.74576       -3.05285
H          4.50654       -2.36534       -3.69417
H          7.65220       -3.39376       -1.89620
H          8.21796       -2.43549       -3.25817
H          8.26370       -1.75350       -1.63730
H         -1.60769        0.43325       -4.11006
H          2.13221        2.22713       -4.46406
H         -2.28200       -1.13650       -4.53090
H         -0.90361       -0.50334       -5.43087
H          0.81678        1.28585       -5.16502
H          1.92614        0.53845       -4.01165
