59
-75.79761615
Cl         1.48042        0.62589        2.39533
P          1.57231       -0.10584       -0.78641
P         -1.59063       -0.16099       -0.85499
C          0.65086        0.38952       -2.30955
H          0.42781        1.45740       -2.24148
H          1.30146        0.24161       -3.17712
C         -0.61605       -0.41457       -2.40254
H         -0.39543       -1.47932       -2.50464
H         -1.23232       -0.12698       -3.26004
C          2.30636       -1.77829       -1.06298
H          1.68727       -2.25619       -1.83379
C          3.13659        0.85418       -0.54195
H          3.23566        0.97827        0.54369
C         -2.87156       -1.45421       -0.50825
H         -2.83172       -1.63228        0.57355
C         -2.68574        1.32323       -1.03783
H         -2.65419        1.60185       -2.09816
C          3.69783       -1.43325       -1.62886
H          4.39894       -2.25267       -1.41213
H          3.64079       -1.38399       -2.72713
C          4.24606       -0.07890       -1.08434
H          4.79855        0.44562       -1.87660
H          4.99279       -0.26335       -0.29864
C         -4.18489       -0.74431       -0.87997
H         -4.41322       -0.95150       -1.93468
H         -5.02430       -1.16701       -0.30682
C         -4.07985        0.78972       -0.66205
H         -4.27212        1.01929        0.39498
H         -4.86081        1.32094       -1.22689
C          2.31611       -2.63903        0.20066
H          2.63421       -3.65753       -0.06321
H          1.28603       -2.74365        0.56743
C          3.08754        2.22641       -1.20175
H          4.09499        2.66578       -1.19701
H          2.83226        2.10233       -2.26210
C         -2.62789       -2.75892       -1.25718
H         -3.52269       -3.39179       -1.17632
H         -2.52628       -2.54030       -2.32807
C         -2.20478        2.48277       -0.17486
H         -2.21649        2.16954        0.87740
H         -1.15042        2.68685       -0.40284
C          3.19704       -2.10846        1.32009
H          4.24570       -2.07076        1.02198
H          3.13796       -2.73053        2.21620
H          2.90582       -1.09890        1.60865
C          2.10972        3.17110       -0.51941
H          2.05473        4.14020       -1.02037
H          2.39604        3.35206        0.51840
H          1.10355        2.75264       -0.49914
C         -1.41134       -3.51405       -0.74551
H         -1.23246       -4.43500       -1.30504
H         -1.52826       -3.78449        0.30569
H         -0.51018       -2.90550       -0.81742
C         -3.03187        3.74639       -0.35719
H         -2.66542        4.56831        0.26209
H         -3.01302        4.08299       -1.39547
H         -4.07723        3.57827       -0.09230
Cl        -1.75023        0.08112        2.31954
Pd        -0.05038        0.07735        0.85416
