72
-98.09120467
Fe         0.04893        2.83368       -0.05608
P          1.97078       -0.08202        0.01052
P         -1.71653       -0.08601       -0.19831
C          1.47405        1.56897        0.63616
C          0.47444        1.82320        1.66055
C          0.44686        3.25306        1.91648
C          1.44693        3.88213        1.07241
C          2.08239        2.84088        0.28282
C         -1.35293        1.60588       -0.81032
C         -1.96055        2.84256       -0.34392
C         -1.36047        3.94651       -1.07414
C         -0.39767        3.39759       -2.01028
C         -0.38788        1.95548       -1.83888
C          3.39444       -0.65097        1.04516
C          4.57587        0.02491        0.33036
C          2.86493        0.04261       -1.61227
C          4.36055        0.07037       -1.20837
C         -2.92649       -0.90457       -1.33935
C         -4.13742       -1.19699       -0.43156
C         -2.74749        0.01365        1.33759
C         -4.16766       -0.26074        0.80724
H         -0.13535        1.06986        2.16075
H         -0.19257        3.76127        2.64194
H          1.68847        4.94684        1.04547
H          2.89575        2.97806       -0.43263
H         -2.74274        2.92443        0.41371
H          0.22788        1.25300       -2.39859
Cl         1.62763       -3.09100        0.61368
Cl        -1.47072       -3.10005        0.03213
Pd         0.12689       -1.49761        0.06634
H          3.46203       -1.73958        0.94001
C          3.24874       -0.26931        2.51368
H          2.56233        0.98883       -2.07585
C          2.53269       -1.13779       -2.52903
H          5.51993       -0.48206        0.58447
H          4.67828        1.04802        0.72023
H          4.85899        0.94988       -1.64228
H          4.86126       -0.79522       -1.66347
H         -1.61332        5.00306       -0.96010
H          0.21301        3.96602       -2.71503
H          4.20165       -0.45456        3.02872
H          3.31935       -1.22683       -3.29162
H         -2.46184       -1.83225       -1.69512
C         -3.23637       -0.00447       -2.53141
H         -2.65458        1.03503        1.72590
C         -2.27918       -0.98282        2.39394
H         -4.10553       -2.24348       -0.09466
H         -5.06897       -1.10126       -1.00627
H         -4.65378        0.68790        0.53499
H         -4.78952       -0.69513        1.60279
H         -3.73243        0.90501       -2.16692
H         -1.19008       -0.90656        2.50601
C          2.12454       -1.01456        3.21496
H          1.16503       -0.82191        2.73514
H          2.28548       -2.09361        3.18063
H          2.03069       -0.72682        4.26446
C          1.17909       -1.04673       -3.21845
H          1.12773       -0.17569       -3.87422
H          0.97624       -1.92634       -3.83368
H          0.36277       -0.96327       -2.50144
C         -4.08203       -0.68368       -3.59952
H         -3.59061       -1.58269       -3.97631
H         -5.05445       -0.98899       -3.21051
H         -4.26523       -0.02764       -4.45358
C         -2.94780       -0.78868        3.74706
H         -2.76458        0.21508        4.13525
H         -4.02942       -0.91642        3.68381
H         -2.57919       -1.49977        4.48992
H          3.08913        0.81460        2.58369
H          2.59964       -2.06200       -1.93934
H         -2.29056        0.34031       -2.97216
H         -2.45637       -2.00020        2.02181
